<?xml version="1.0" encoding="UTF-8"?>

<!-- generated on 10/08/20 12:24:20 by Eclipse SUMO netedit Version 1.7.0
<configuration xmlns:xsi="http://www.w3.org/2001/XMLSchema-instance" xsi:noNamespaceSchemaLocation="http://sumo.dlr.de/xsd/netconvertConfiguration.xsd">

    <input>
        <sumo-net-file value="C:\Users\iyyel\Documents\SUMO\Maps\2-4TL4W-Intersection\intersection.net.xml"/>
    </input>

    <output>
        <output-file value="C:\Users\iyyel\Documents\SUMO\Maps\2-4TL4W-Intersection\intersection.net.xml"/>
    </output>

    <processing>
        <geometry.min-radius.fix.railways value="false"/>
        <geometry.max-grade.fix value="false"/>
        <offset.disable-normalization value="true"/>
        <lefthand value="false"/>
    </processing>

    <junctions>
        <no-turnarounds value="true"/>
        <junctions.corner-detail value="5"/>
        <junctions.limit-turn-speed value="5.5"/>
        <rectangular-lane-cut value="false"/>
    </junctions>

    <pedestrian>
        <walkingareas value="false"/>
    </pedestrian>

    <report>
        <aggregate-warnings value="5"/>
    </report>

</configuration>
-->

<net version="1.6" junctionCornerDetail="5" limitTurnSpeed="5.50" xmlns:xsi="http://www.w3.org/2001/XMLSchema-instance" xsi:noNamespaceSchemaLocation="http://sumo.dlr.de/xsd/net_file.xsd">

    <location netOffset="0.00,0.00" convBoundary="100.00,-100.00,300.00,200.00" origBoundary="-10000000000.00,-10000000000.00,10000000000.00,10000000000.00" projParameter="!"/>

    <edge id=":TL2_0" function="internal">
        <lane id=":TL2_0_0" index="0" speed="6.51" length="9.03" shape="198.40,7.20 198.05,4.75 197.00,3.00 195.25,1.95 192.80,1.60"/>
    </edge>
    <edge id=":TL2_1" function="internal">
        <lane id=":TL2_1_0" index="0" speed="13.89" length="14.40" shape="198.40,7.20 198.40,-7.20"/>
    </edge>
    <edge id=":TL2_2" function="internal">
        <lane id=":TL2_2_0" index="0" speed="8.00" length="5.93" shape="198.40,7.20 198.95,3.35 200.00,1.60"/>
    </edge>
    <edge id=":TL2_12" function="internal">
        <lane id=":TL2_12_0" index="0" speed="8.00" length="8.26" shape="200.00,1.60 200.60,0.60 203.35,-1.05 207.20,-1.60"/>
    </edge>
    <edge id=":TL2_3" function="internal">
        <lane id=":TL2_3_0" index="0" speed="6.51" length="9.03" shape="207.20,1.60 204.75,1.95 203.00,3.00 201.95,4.75 201.60,7.20"/>
    </edge>
    <edge id=":TL2_4" function="internal">
        <lane id=":TL2_4_0" index="0" speed="13.89" length="14.40" shape="207.20,1.60 192.80,1.60"/>
    </edge>
    <edge id=":TL2_5" function="internal">
        <lane id=":TL2_5_0" index="0" speed="8.00" length="5.93" shape="207.20,1.60 203.35,1.05 201.60,-0.00"/>
    </edge>
    <edge id=":TL2_13" function="internal">
        <lane id=":TL2_13_0" index="0" speed="8.00" length="8.26" shape="201.60,-0.00 200.60,-0.60 198.95,-3.35 198.40,-7.20"/>
    </edge>
    <edge id=":TL2_6" function="internal">
        <lane id=":TL2_6_0" index="0" speed="6.51" length="9.03" shape="201.60,-7.20 201.95,-4.75 203.00,-3.00 204.75,-1.95 207.20,-1.60"/>
    </edge>
    <edge id=":TL2_7" function="internal">
        <lane id=":TL2_7_0" index="0" speed="13.89" length="14.40" shape="201.60,-7.20 201.60,7.20"/>
    </edge>
    <edge id=":TL2_8" function="internal">
        <lane id=":TL2_8_0" index="0" speed="8.00" length="5.93" shape="201.60,-7.20 201.05,-3.35 200.00,-1.60"/>
    </edge>
    <edge id=":TL2_14" function="internal">
        <lane id=":TL2_14_0" index="0" speed="8.00" length="8.26" shape="200.00,-1.60 199.40,-0.60 196.65,1.05 192.80,1.60"/>
    </edge>
    <edge id=":TL2_9" function="internal">
        <lane id=":TL2_9_0" index="0" speed="6.51" length="9.03" shape="192.80,-1.60 195.25,-1.95 197.00,-3.00 198.05,-4.75 198.40,-7.20"/>
    </edge>
    <edge id=":TL2_10" function="internal">
        <lane id=":TL2_10_0" index="0" speed="13.89" length="14.40" shape="192.80,-1.60 207.20,-1.60"/>
    </edge>
    <edge id=":TL2_11" function="internal">
        <lane id=":TL2_11_0" index="0" speed="8.00" length="5.93" shape="192.80,-1.60 196.65,-1.05 198.40,0.00"/>
    </edge>
    <edge id=":TL2_15" function="internal">
        <lane id=":TL2_15_0" index="0" speed="8.00" length="8.26" shape="198.40,0.00 199.40,0.60 201.05,3.35 201.60,7.20"/>
    </edge>
    <edge id=":TL1_0" function="internal">
        <lane id=":TL1_0_0" index="0" speed="6.51" length="9.03" shape="198.40,107.20 198.05,104.75 197.00,103.00 195.25,101.95 192.80,101.60"/>
    </edge>
    <edge id=":TL1_1" function="internal">
        <lane id=":TL1_1_0" index="0" speed="13.89" length="14.40" shape="198.40,107.20 198.40,92.80"/>
    </edge>
    <edge id=":TL1_2" function="internal">
        <lane id=":TL1_2_0" index="0" speed="8.00" length="5.93" shape="198.40,107.20 198.95,103.35 200.00,101.60"/>
    </edge>
    <edge id=":TL1_12" function="internal">
        <lane id=":TL1_12_0" index="0" speed="8.00" length="8.26" shape="200.00,101.60 200.60,100.60 203.35,98.95 207.20,98.40"/>
    </edge>
    <edge id=":TL1_3" function="internal">
        <lane id=":TL1_3_0" index="0" speed="6.51" length="9.03" shape="207.20,101.60 204.75,101.95 203.00,103.00 201.95,104.75 201.60,107.20"/>
    </edge>
    <edge id=":TL1_4" function="internal">
        <lane id=":TL1_4_0" index="0" speed="13.89" length="14.40" shape="207.20,101.60 192.80,101.60"/>
    </edge>
    <edge id=":TL1_5" function="internal">
        <lane id=":TL1_5_0" index="0" speed="8.00" length="5.93" shape="207.20,101.60 203.35,101.05 201.60,100.00"/>
    </edge>
    <edge id=":TL1_13" function="internal">
        <lane id=":TL1_13_0" index="0" speed="8.00" length="8.26" shape="201.60,100.00 200.60,99.40 198.95,96.65 198.40,92.80"/>
    </edge>
    <edge id=":TL1_6" function="internal">
        <lane id=":TL1_6_0" index="0" speed="6.51" length="9.03" shape="201.60,92.80 201.95,95.25 203.00,97.00 204.75,98.05 207.20,98.40"/>
    </edge>
    <edge id=":TL1_7" function="internal">
        <lane id=":TL1_7_0" index="0" speed="13.89" length="14.40" shape="201.60,92.80 201.60,107.20"/>
    </edge>
    <edge id=":TL1_8" function="internal">
        <lane id=":TL1_8_0" index="0" speed="8.00" length="5.93" shape="201.60,92.80 201.05,96.65 200.00,98.40"/>
    </edge>
    <edge id=":TL1_14" function="internal">
        <lane id=":TL1_14_0" index="0" speed="8.00" length="8.26" shape="200.00,98.40 199.40,99.40 196.65,101.05 192.80,101.60"/>
    </edge>
    <edge id=":TL1_9" function="internal">
        <lane id=":TL1_9_0" index="0" speed="6.51" length="9.03" shape="192.80,98.40 195.25,98.05 197.00,97.00 198.05,95.25 198.40,92.80"/>
    </edge>
    <edge id=":TL1_10" function="internal">
        <lane id=":TL1_10_0" index="0" speed="13.89" length="14.40" shape="192.80,98.40 207.20,98.40"/>
    </edge>
    <edge id=":TL1_11" function="internal">
        <lane id=":TL1_11_0" index="0" speed="8.00" length="5.93" shape="192.80,98.40 196.65,98.95 198.40,100.00"/>
    </edge>
    <edge id=":TL1_15" function="internal">
        <lane id=":TL1_15_0" index="0" speed="8.00" length="8.26" shape="198.40,100.00 199.40,100.60 201.05,103.35 201.60,107.20"/>
    </edge>

    <edge id="BR-TL-i" from="TL1" to="TL2" priority="-1">
        <lane id="BR-TL-i_0" index="0" speed="13.89" length="85.60" shape="198.40,92.80 198.40,7.20"/>
    </edge>
    <edge id="BR-TL-o" from="TL2" to="TL1" priority="-1">
        <lane id="BR-TL-o_0" index="0" speed="13.89" length="85.60" shape="201.60,7.20 201.60,92.80"/>
    </edge>
    <edge id="Bi" from="TL2" to="B" priority="-1">
        <lane id="Bi_0" index="0" speed="13.89" length="92.80" shape="198.40,-7.20 198.40,-100.00"/>
    </edge>
    <edge id="Bo" from="B" to="TL2" priority="-1">
        <lane id="Bo_0" index="0" speed="13.89" length="92.80" shape="201.60,-100.00 201.60,-7.20"/>
    </edge>
    <edge id="L0i" from="TL2" to="L0" priority="-1">
        <lane id="L0i_0" index="0" speed="13.89" length="92.80" shape="192.80,1.60 100.00,1.60"/>
    </edge>
    <edge id="L0o" from="L0" to="TL2" priority="-1">
        <lane id="L0o_0" index="0" speed="13.89" length="92.80" shape="100.00,-1.60 192.80,-1.60"/>
    </edge>
    <edge id="L1i" from="TL1" to="L1" priority="-1">
        <lane id="L1i_0" index="0" speed="13.89" length="92.80" shape="192.80,101.60 100.00,101.60"/>
    </edge>
    <edge id="L1o" from="L1" to="TL1" priority="-1">
        <lane id="L1o_0" index="0" speed="13.89" length="92.80" shape="100.00,98.40 192.80,98.40"/>
    </edge>
    <edge id="R0i" from="TL2" to="R0" priority="-1">
        <lane id="R0i_0" index="0" speed="13.89" length="92.80" shape="207.20,-1.60 300.00,-1.60"/>
    </edge>
    <edge id="R0o" from="R0" to="TL2" priority="-1">
        <lane id="R0o_0" index="0" speed="13.89" length="92.80" shape="300.00,1.60 207.20,1.60"/>
    </edge>
    <edge id="R1i" from="TL1" to="R1" priority="-1">
        <lane id="R1i_0" index="0" speed="13.89" length="92.80" shape="207.20,98.40 300.00,98.40"/>
    </edge>
    <edge id="R1o" from="R1" to="TL1" priority="-1">
        <lane id="R1o_0" index="0" speed="13.89" length="92.80" shape="300.00,101.60 207.20,101.60"/>
    </edge>
    <edge id="Ti" from="TL1" to="T" priority="-1">
        <lane id="Ti_0" index="0" speed="13.89" length="92.80" shape="201.60,107.20 201.60,200.00"/>
    </edge>
    <edge id="To" from="T" to="TL1" priority="-1">
        <lane id="To_0" index="0" speed="13.89" length="92.80" shape="198.40,200.00 198.40,107.20"/>
    </edge>

    <tlLogic id="TL1" type="static" programID="0" offset="0">
        <phase duration="30" state="rrrrrrrrrrrr" name="Red"/>
        <phase duration="30" state="yyyrrryyyrrr" name="vYellow" />
        <phase duration="30" state="rrryyyrrryyy" name="hYellow" />
        <phase duration="30" state="gggrrrgggrrr" name="vGreen" />
        <phase duration="30" state="rrrgggrrrggg" name="hGreen"/>
    </tlLogic>
    <tlLogic id="TL2" type="static" programID="0" offset="0">
        <phase duration="30" state="rrrrrrrrrrrr" name="Red"/>
        <phase duration="30" state="yyyrrryyyrrr" name="vYellow" />
        <phase duration="30" state="rrryyyrrryyy" name="hYellow" />
        <phase duration="30" state="gggrrrgggrrr" name="vGreen" />
        <phase duration="30" state="rrrgggrrrggg" name="hGreen"/>
    </tlLogic>

    <junction id="B" type="dead_end" x="200.00" y="-100.00" incLanes="Bi_0" intLanes="" shape="200.00,-100.00 196.80,-100.00 200.00,-100.00"/>
    <junction id="TL2" type="traffic_light" x="200.00" y="0.00" incLanes="BR-TL-i_0 R0o_0 Bo_0 L0o_0" intLanes=":TL2_0_0 :TL2_1_0 :TL2_12_0 :TL2_3_0 :TL2_4_0 :TL2_13_0 :TL2_6_0 :TL2_7_0 :TL2_14_0 :TL2_9_0 :TL2_10_0 :TL2_15_0" shape="196.80,7.20 203.20,7.20 203.64,4.98 204.20,4.20 204.98,3.64 205.98,3.31 207.20,3.20 207.20,-3.20 204.98,-3.64 204.20,-4.20 203.64,-4.98 203.31,-5.98 203.20,-7.20 196.80,-7.20 196.36,-4.98 195.80,-4.20 195.02,-3.64 194.02,-3.31 192.80,-3.20 192.80,3.20 195.02,3.64 195.80,4.20 196.36,4.98 196.69,5.98">
        <request index="0"  response="000000000000" foes="000100010000" cont="0"/>
        <request index="1"  response="100000100000" foes="111100110000" cont="0"/>
        <request index="2"  response="100011100000" foes="110011110000" cont="1"/>
        <request index="3"  response="000010000000" foes="100010000000" cont="0"/>
        <request index="4"  response="000110000111" foes="100110000111" cont="0"/>
        <request index="5"  response="011110000110" foes="011110000110" cont="1"/>
        <request index="6"  response="000000000000" foes="010000000100" cont="0"/>
        <request index="7"  response="100000100000" foes="110000111100" cont="0"/>
        <request index="8"  response="100000100011" foes="110000110011" cont="1"/>
        <request index="9"  response="000000000010" foes="000000100010" cont="0"/>
        <request index="10" response="000111000110" foes="000111100110" cont="0"/>
        <request index="11" response="000110011110" foes="000110011110" cont="1"/>
    </junction>
    <junction id="L0" type="dead_end" x="100.00" y="0.00" incLanes="L0i_0" intLanes="" shape="100.00,0.00 100.00,3.20 100.00,0.00"/>
    <junction id="L1" type="dead_end" x="100.00" y="100.00" incLanes="L1i_0" intLanes="" shape="100.00,100.00 100.00,103.20 100.00,100.00"/>
    <junction id="R0" type="dead_end" x="300.00" y="0.00" incLanes="R0i_0" intLanes="" shape="300.00,0.00 300.00,-3.20 300.00,0.00"/>
    <junction id="R1" type="dead_end" x="300.00" y="100.00" incLanes="R1i_0" intLanes="" shape="300.00,100.00 300.00,96.80 300.00,100.00"/>
    <junction id="T" type="dead_end" x="200.00" y="200.00" incLanes="Ti_0" intLanes="" shape="200.00,200.00 203.20,200.00 200.00,200.00"/>
    <junction id="TL1" type="traffic_light" x="200.00" y="100.00" incLanes="To_0 R1o_0 BR-TL-o_0 L1o_0" intLanes=":TL1_0_0 :TL1_1_0 :TL1_12_0 :TL1_3_0 :TL1_4_0 :TL1_13_0 :TL1_6_0 :TL1_7_0 :TL1_14_0 :TL1_9_0 :TL1_10_0 :TL1_15_0" shape="196.80,107.20 203.20,107.20 203.64,104.98 204.20,104.20 204.98,103.64 205.98,103.31 207.20,103.20 207.20,96.80 204.98,96.36 204.20,95.80 203.64,95.02 203.31,94.02 203.20,92.80 196.80,92.80 196.36,95.02 195.80,95.80 195.02,96.36 194.02,96.69 192.80,96.80 192.80,103.20 195.02,103.64 195.80,104.20 196.36,104.98 196.69,105.98">
        <request index="0"  response="000000000000" foes="000100010000" cont="0"/>
        <request index="1"  response="100000100000" foes="111100110000" cont="0"/>
        <request index="2"  response="100011100000" foes="110011110000" cont="1"/>
        <request index="3"  response="000010000000" foes="100010000000" cont="0"/>
        <request index="4"  response="000110000111" foes="100110000111" cont="0"/>
        <request index="5"  response="011110000110" foes="011110000110" cont="1"/>
        <request index="6"  response="000000000000" foes="010000000100" cont="0"/>
        <request index="7"  response="100000100000" foes="110000111100" cont="0"/>
        <request index="8"  response="100000100011" foes="110000110011" cont="1"/>
        <request index="9"  response="000000000010" foes="000000100010" cont="0"/>
        <request index="10" response="000111000110" foes="000111100110" cont="0"/>
        <request index="11" response="000110011110" foes="000110011110" cont="1"/>
    </junction>

    <junction id=":TL2_12_0" type="internal" x="200.00" y="1.60" incLanes=":TL2_2_0 Bo_0" intLanes=":TL2_4_0 :TL2_5_0 :TL2_6_0 :TL2_7_0 :TL2_10_0 :TL2_11_0"/>
    <junction id=":TL2_13_0" type="internal" x="201.60" y="-0.00" incLanes=":TL2_5_0 L0o_0" intLanes=":TL2_1_0 :TL2_2_0 :TL2_7_0 :TL2_8_0 :TL2_9_0 :TL2_10_0"/>
    <junction id=":TL2_14_0" type="internal" x="200.00" y="-1.60" incLanes=":TL2_8_0 BR-TL-i_0" intLanes=":TL2_0_0 :TL2_1_0 :TL2_4_0 :TL2_5_0 :TL2_10_0 :TL2_11_0"/>
    <junction id=":TL2_15_0" type="internal" x="198.40" y="0.00" incLanes=":TL2_11_0 R0o_0" intLanes=":TL2_1_0 :TL2_2_0 :TL2_3_0 :TL2_4_0 :TL2_7_0 :TL2_8_0"/>
    <junction id=":TL1_12_0" type="internal" x="200.00" y="101.60" incLanes=":TL1_2_0 BR-TL-o_0" intLanes=":TL1_4_0 :TL1_5_0 :TL1_6_0 :TL1_7_0 :TL1_10_0 :TL1_11_0"/>
    <junction id=":TL1_13_0" type="internal" x="201.60" y="100.00" incLanes=":TL1_5_0 L1o_0" intLanes=":TL1_1_0 :TL1_2_0 :TL1_7_0 :TL1_8_0 :TL1_9_0 :TL1_10_0"/>
    <junction id=":TL1_14_0" type="internal" x="200.00" y="98.40" incLanes=":TL1_8_0 To_0" intLanes=":TL1_0_0 :TL1_1_0 :TL1_4_0 :TL1_5_0 :TL1_10_0 :TL1_11_0"/>
    <junction id=":TL1_15_0" type="internal" x="198.40" y="100.00" incLanes=":TL1_11_0 R1o_0" intLanes=":TL1_1_0 :TL1_2_0 :TL1_3_0 :TL1_4_0 :TL1_7_0 :TL1_8_0"/>

    <connection from="BR-TL-i" to="L0i" fromLane="0" toLane="0" via=":TL2_0_0" tl="TL2" linkIndex="0" dir="r" state="O"/>
    <connection from="BR-TL-i" to="Bi" fromLane="0" toLane="0" via=":TL2_1_0" tl="TL2" linkIndex="1" dir="s" state="O"/>
    <connection from="BR-TL-i" to="R0i" fromLane="0" toLane="0" via=":TL2_2_0" tl="TL2" linkIndex="2" dir="l" state="o"/>
    <connection from="BR-TL-o" to="R1i" fromLane="0" toLane="0" via=":TL1_6_0" tl="TL1" linkIndex="6" dir="r" state="O"/>
    <connection from="BR-TL-o" to="Ti" fromLane="0" toLane="0" via=":TL1_7_0" tl="TL1" linkIndex="7" dir="s" state="O"/>
    <connection from="BR-TL-o" to="L1i" fromLane="0" toLane="0" via=":TL1_8_0" tl="TL1" linkIndex="8" dir="l" state="o"/>
    <connection from="Bo" to="R0i" fromLane="0" toLane="0" via=":TL2_6_0" tl="TL2" linkIndex="6" dir="r" state="O"/>
    <connection from="Bo" to="BR-TL-o" fromLane="0" toLane="0" via=":TL2_7_0" tl="TL2" linkIndex="7" dir="s" state="O"/>
    <connection from="Bo" to="L0i" fromLane="0" toLane="0" via=":TL2_8_0" tl="TL2" linkIndex="8" dir="l" state="o"/>
    <connection from="L0o" to="Bi" fromLane="0" toLane="0" via=":TL2_9_0" tl="TL2" linkIndex="9" dir="r" state="o"/>
    <connection from="L0o" to="R0i" fromLane="0" toLane="0" via=":TL2_10_0" tl="TL2" linkIndex="10" dir="s" state="o"/>
    <connection from="L0o" to="BR-TL-o" fromLane="0" toLane="0" via=":TL2_11_0" tl="TL2" linkIndex="11" dir="l" state="o"/>
    <connection from="L1o" to="BR-TL-i" fromLane="0" toLane="0" via=":TL1_9_0" tl="TL1" linkIndex="9" dir="r" state="o"/>
    <connection from="L1o" to="R1i" fromLane="0" toLane="0" via=":TL1_10_0" tl="TL1" linkIndex="10" dir="s" state="o"/>
    <connection from="L1o" to="Ti" fromLane="0" toLane="0" via=":TL1_11_0" tl="TL1" linkIndex="11" dir="l" state="o"/>
    <connection from="R0o" to="BR-TL-o" fromLane="0" toLane="0" via=":TL2_3_0" tl="TL2" linkIndex="3" dir="r" state="o"/>
    <connection from="R0o" to="L0i" fromLane="0" toLane="0" via=":TL2_4_0" tl="TL2" linkIndex="4" dir="s" state="o"/>
    <connection from="R0o" to="Bi" fromLane="0" toLane="0" via=":TL2_5_0" tl="TL2" linkIndex="5" dir="l" state="o"/>
    <connection from="R1o" to="Ti" fromLane="0" toLane="0" via=":TL1_3_0" tl="TL1" linkIndex="3" dir="r" state="o"/>
    <connection from="R1o" to="L1i" fromLane="0" toLane="0" via=":TL1_4_0" tl="TL1" linkIndex="4" dir="s" state="o"/>
    <connection from="R1o" to="BR-TL-i" fromLane="0" toLane="0" via=":TL1_5_0" tl="TL1" linkIndex="5" dir="l" state="o"/>
    <connection from="To" to="L1i" fromLane="0" toLane="0" via=":TL1_0_0" tl="TL1" linkIndex="0" dir="r" state="O"/>
    <connection from="To" to="BR-TL-i" fromLane="0" toLane="0" via=":TL1_1_0" tl="TL1" linkIndex="1" dir="s" state="O"/>
    <connection from="To" to="R1i" fromLane="0" toLane="0" via=":TL1_2_0" tl="TL1" linkIndex="2" dir="l" state="o"/>

    <connection from=":TL2_0" to="L0i" fromLane="0" toLane="0" dir="r" state="M"/>
    <connection from=":TL2_1" to="Bi" fromLane="0" toLane="0" dir="s" state="M"/>
    <connection from=":TL2_2" to="R0i" fromLane="0" toLane="0" via=":TL2_12_0" dir="l" state="m"/>
    <connection from=":TL2_12" to="R0i" fromLane="0" toLane="0" dir="l" state="M"/>
    <connection from=":TL2_3" to="BR-TL-o" fromLane="0" toLane="0" dir="r" state="M"/>
    <connection from=":TL2_4" to="L0i" fromLane="0" toLane="0" dir="s" state="M"/>
    <connection from=":TL2_5" to="Bi" fromLane="0" toLane="0" via=":TL2_13_0" dir="l" state="m"/>
    <connection from=":TL2_13" to="Bi" fromLane="0" toLane="0" dir="l" state="M"/>
    <connection from=":TL2_6" to="R0i" fromLane="0" toLane="0" dir="r" state="M"/>
    <connection from=":TL2_7" to="BR-TL-o" fromLane="0" toLane="0" dir="s" state="M"/>
    <connection from=":TL2_8" to="L0i" fromLane="0" toLane="0" via=":TL2_14_0" dir="l" state="m"/>
    <connection from=":TL2_14" to="L0i" fromLane="0" toLane="0" dir="l" state="M"/>
    <connection from=":TL2_9" to="Bi" fromLane="0" toLane="0" dir="r" state="M"/>
    <connection from=":TL2_10" to="R0i" fromLane="0" toLane="0" dir="s" state="M"/>
    <connection from=":TL2_11" to="BR-TL-o" fromLane="0" toLane="0" via=":TL2_15_0" dir="l" state="m"/>
    <connection from=":TL2_15" to="BR-TL-o" fromLane="0" toLane="0" dir="l" state="M"/>
    <connection from=":TL1_0" to="L1i" fromLane="0" toLane="0" dir="r" state="M"/>
    <connection from=":TL1_1" to="BR-TL-i" fromLane="0" toLane="0" dir="s" state="M"/>
    <connection from=":TL1_2" to="R1i" fromLane="0" toLane="0" via=":TL1_12_0" dir="l" state="m"/>
    <connection from=":TL1_12" to="R1i" fromLane="0" toLane="0" dir="l" state="M"/>
    <connection from=":TL1_3" to="Ti" fromLane="0" toLane="0" dir="r" state="M"/>
    <connection from=":TL1_4" to="L1i" fromLane="0" toLane="0" dir="s" state="M"/>
    <connection from=":TL1_5" to="BR-TL-i" fromLane="0" toLane="0" via=":TL1_13_0" dir="l" state="m"/>
    <connection from=":TL1_13" to="BR-TL-i" fromLane="0" toLane="0" dir="l" state="M"/>
    <connection from=":TL1_6" to="R1i" fromLane="0" toLane="0" dir="r" state="M"/>
    <connection from=":TL1_7" to="Ti" fromLane="0" toLane="0" dir="s" state="M"/>
    <connection from=":TL1_8" to="L1i" fromLane="0" toLane="0" via=":TL1_14_0" dir="l" state="m"/>
    <connection from=":TL1_14" to="L1i" fromLane="0" toLane="0" dir="l" state="M"/>
    <connection from=":TL1_9" to="BR-TL-i" fromLane="0" toLane="0" dir="r" state="M"/>
    <connection from=":TL1_10" to="R1i" fromLane="0" toLane="0" dir="s" state="M"/>
    <connection from=":TL1_11" to="Ti" fromLane="0" toLane="0" via=":TL1_15_0" dir="l" state="m"/>
    <connection from=":TL1_15" to="Ti" fromLane="0" toLane="0" dir="l" state="M"/>

</net>
