<configuration xmlns:xsi="http://www.w3.org/2001/XMLSchema-instance" xsi:noNamespaceSchemaLocation="http://sumo.dlr.de/xsd/sumoConfiguration.xsd">

    <input>
        <net-file value="C:\Users\iyyel\Documents\1-1TL1W-Lane\network.net.xml"/>
	    <route-files value="C:\Users\iyyel\Documents\1-1TL1W-Lane\testroutes.rou.xml"/>
        <additional-files value="C:\Users\iyyel\Documents\1-1TL1W-Lane\lanedetector.xml" />
    </input>

</configuration>