<configuration xmlns:xsi="http://www.w3.org/2001/XMLSchema-instance" xsi:noNamespaceSchemaLocation="http://sumo.dlr.de/xsd/sumoConfiguration.xsd">

    <input>
        <net-file value="C:\Users\iyyel\Documents\SUMO\Maps\1-1TL1W-Lane\intersection.net.xml"/>
	    <route-files value="C:\Users\iyyel\Documents\SUMO\Maps\1-1TL1W-Lane\intersection.rou.xml"/>
    </input>

</configuration>