<additional>
  <vType id="vehicle1" accel="0.8" decel="4.5" sigma="0.5" length="5" maxSpeed="70" emissionClass="HBEFA3" />
</additional>