<?xml version="1.0" encoding="UTF-8"?>

<!-- generated on 10/08/20 14:34:43 by Eclipse SUMO netedit Version 1.7.0
<configuration xmlns:xsi="http://www.w3.org/2001/XMLSchema-instance" xsi:noNamespaceSchemaLocation="http://sumo.dlr.de/xsd/netconvertConfiguration.xsd">

    <input>
        <sumo-net-file value="C:\Users\iyyel\Documents\SUMO\Maps\2-Circular-Lane\intersection.net.xml"/>
    </input>

    <output>
        <output-file value="C:\Users\iyyel\Documents\SUMO\Maps\2-Circular-Lane\intersection.net.xml"/>
    </output>

    <processing>
        <geometry.min-radius.fix.railways value="false"/>
        <geometry.max-grade.fix value="false"/>
        <offset.disable-normalization value="true"/>
        <lefthand value="false"/>
    </processing>

    <junctions>
        <no-turnarounds value="true"/>
        <junctions.corner-detail value="5"/>
        <junctions.limit-turn-speed value="5.5"/>
        <rectangular-lane-cut value="false"/>
    </junctions>

    <pedestrian>
        <walkingareas value="false"/>
    </pedestrian>

    <report>
        <aggregate-warnings value="5"/>
    </report>

</configuration>
-->

<net version="1.6" junctionCornerDetail="5" limitTurnSpeed="5.50" xmlns:xsi="http://www.w3.org/2001/XMLSchema-instance" xsi:noNamespaceSchemaLocation="http://sumo.dlr.de/xsd/net_file.xsd">

    <location netOffset="0.00,0.00" convBoundary="200.00,-200.00,400.00,0.00" origBoundary="-10000000000.00,-10000000000.00,10000000000.00,10000000000.00" projParameter="!"/>

    <edge id=":J1_0" function="internal">
        <lane id=":J1_0_0" index="0" speed="6.08" length="7.74" shape="203.20,1.60 201.10,1.30 199.60,0.40 198.70,-1.10 198.40,-3.20"/>
    </edge>
    <edge id=":J1_1" function="internal">
        <lane id=":J1_1_0" index="0" speed="3.90" length="2.58" shape="201.60,-3.20 201.70,-2.50 202.00,-2.00 202.50,-1.70 203.20,-1.60"/>
    </edge>
    <edge id=":J2_0" function="internal">
        <lane id=":J2_0_0" index="0" speed="6.08" length="7.74" shape="301.60,-3.20 301.30,-1.10 300.40,0.40 298.90,1.30 296.80,1.60"/>
    </edge>
    <edge id=":J2_1" function="internal">
        <lane id=":J2_1_0" index="0" speed="3.90" length="2.58" shape="296.80,-1.60 297.50,-1.70 298.00,-2.00 298.30,-2.50 298.40,-3.20"/>
    </edge>
    <edge id=":J3_0" function="internal">
        <lane id=":J3_0_0" index="0" speed="13.89" length="14.40" shape="198.40,-92.80 198.40,-107.20"/>
    </edge>
    <edge id=":J3_1" function="internal">
        <lane id=":J3_1_0" index="0" speed="8.00" length="5.93" shape="198.40,-92.80 198.95,-96.65 200.00,-98.40"/>
    </edge>
    <edge id=":J3_6" function="internal">
        <lane id=":J3_6_0" index="0" speed="8.00" length="8.26" shape="200.00,-98.40 200.60,-99.40 203.35,-101.05 207.20,-101.60"/>
    </edge>
    <edge id=":J3_2" function="internal">
        <lane id=":J3_2_0" index="0" speed="6.51" length="9.03" shape="207.20,-98.40 204.75,-98.05 203.00,-97.00 201.95,-95.25 201.60,-92.80"/>
    </edge>
    <edge id=":J3_3" function="internal">
        <lane id=":J3_3_0" index="0" speed="8.00" length="14.19" shape="207.20,-98.40 203.35,-98.95 200.60,-100.60 198.95,-103.35 198.40,-107.20"/>
    </edge>
    <edge id=":J3_4" function="internal">
        <lane id=":J3_4_0" index="0" speed="6.51" length="9.03" shape="201.60,-107.20 201.95,-104.75 203.00,-103.00 204.75,-101.95 207.20,-101.60"/>
    </edge>
    <edge id=":J3_5" function="internal">
        <lane id=":J3_5_0" index="0" speed="13.89" length="14.40" shape="201.60,-107.20 201.60,-92.80"/>
    </edge>
    <edge id=":J4_0" function="internal">
        <lane id=":J4_0_0" index="0" speed="6.51" length="9.03" shape="298.40,-92.80 298.05,-95.25 297.00,-97.00 295.25,-98.05 292.80,-98.40"/>
    </edge>
    <edge id=":J4_1" function="internal">
        <lane id=":J4_1_0" index="0" speed="13.89" length="14.40" shape="298.40,-92.80 298.40,-107.20"/>
    </edge>
    <edge id=":J4_2" function="internal">
        <lane id=":J4_2_0" index="0" speed="8.00" length="5.93" shape="298.40,-92.80 298.95,-96.65 300.00,-98.40"/>
    </edge>
    <edge id=":J4_12" function="internal">
        <lane id=":J4_12_0" index="0" speed="8.00" length="8.26" shape="300.00,-98.40 300.60,-99.40 303.35,-101.05 307.20,-101.60"/>
    </edge>
    <edge id=":J4_3" function="internal">
        <lane id=":J4_3_0" index="0" speed="6.51" length="9.03" shape="307.20,-98.40 304.75,-98.05 303.00,-97.00 301.95,-95.25 301.60,-92.80"/>
    </edge>
    <edge id=":J4_4" function="internal">
        <lane id=":J4_4_0" index="0" speed="13.89" length="14.40" shape="307.20,-98.40 292.80,-98.40"/>
    </edge>
    <edge id=":J4_5" function="internal">
        <lane id=":J4_5_0" index="0" speed="8.00" length="5.93" shape="307.20,-98.40 303.35,-98.95 301.60,-100.00"/>
    </edge>
    <edge id=":J4_13" function="internal">
        <lane id=":J4_13_0" index="0" speed="8.00" length="8.26" shape="301.60,-100.00 300.60,-100.60 298.95,-103.35 298.40,-107.20"/>
    </edge>
    <edge id=":J4_6" function="internal">
        <lane id=":J4_6_0" index="0" speed="6.51" length="9.03" shape="301.60,-107.20 301.95,-104.75 303.00,-103.00 304.75,-101.95 307.20,-101.60"/>
    </edge>
    <edge id=":J4_7" function="internal">
        <lane id=":J4_7_0" index="0" speed="13.89" length="14.40" shape="301.60,-107.20 301.60,-92.80"/>
    </edge>
    <edge id=":J4_8" function="internal">
        <lane id=":J4_8_0" index="0" speed="8.00" length="5.93" shape="301.60,-107.20 301.05,-103.35 300.00,-101.60"/>
    </edge>
    <edge id=":J4_14" function="internal">
        <lane id=":J4_14_0" index="0" speed="8.00" length="8.26" shape="300.00,-101.60 299.40,-100.60 296.65,-98.95 292.80,-98.40"/>
    </edge>
    <edge id=":J4_9" function="internal">
        <lane id=":J4_9_0" index="0" speed="6.51" length="9.03" shape="292.80,-101.60 295.25,-101.95 297.00,-103.00 298.05,-104.75 298.40,-107.20"/>
    </edge>
    <edge id=":J4_10" function="internal">
        <lane id=":J4_10_0" index="0" speed="13.89" length="14.40" shape="292.80,-101.60 307.20,-101.60"/>
    </edge>
    <edge id=":J4_11" function="internal">
        <lane id=":J4_11_0" index="0" speed="8.00" length="5.93" shape="292.80,-101.60 296.65,-101.05 298.40,-100.00"/>
    </edge>
    <edge id=":J4_15" function="internal">
        <lane id=":J4_15_0" index="0" speed="8.00" length="8.26" shape="298.40,-100.00 299.40,-99.40 301.05,-96.65 301.60,-92.80"/>
    </edge>
    <edge id=":J5_0" function="internal">
        <lane id=":J5_0_0" index="0" speed="6.08" length="7.74" shape="198.40,-196.80 198.70,-198.90 199.60,-200.40 201.10,-201.30 203.20,-201.60"/>
    </edge>
    <edge id=":J5_1" function="internal">
        <lane id=":J5_1_0" index="0" speed="3.90" length="2.58" shape="203.20,-198.40 202.50,-198.30 202.00,-198.00 201.70,-197.50 201.60,-196.80"/>
    </edge>
    <edge id=":J6_0" function="internal">
        <lane id=":J6_0_0" index="0" speed="3.90" length="2.58" shape="298.40,-196.80 298.30,-197.50 298.00,-198.00 297.50,-198.30 296.80,-198.40"/>
    </edge>
    <edge id=":J6_1" function="internal">
        <lane id=":J6_1_0" index="0" speed="6.08" length="7.74" shape="296.80,-201.60 298.90,-201.30 300.40,-200.40 301.30,-198.90 301.60,-196.80"/>
    </edge>

    <edge id="J1i" from="J2" to="J1" priority="-1">
        <lane id="J1i_0" index="0" speed="13.89" length="93.60" shape="296.80,1.60 203.20,1.60"/>
    </edge>
    <edge id="J1o" from="J1" to="J2" priority="-1">
        <lane id="J1o_0" index="0" speed="13.89" length="93.60" shape="203.20,-1.60 296.80,-1.60"/>
    </edge>
    <edge id="J2i" from="J4" to="J2" priority="-1">
        <lane id="J2i_0" index="0" speed="13.89" length="89.60" shape="301.60,-92.80 301.60,-3.20"/>
    </edge>
    <edge id="J2o" from="J2" to="J4" priority="-1">
        <lane id="J2o_0" index="0" speed="13.89" length="89.60" shape="298.40,-3.20 298.40,-92.80"/>
    </edge>
    <edge id="J3i" from="J1" to="J3" priority="-1">
        <lane id="J3i_0" index="0" speed="13.89" length="89.60" shape="198.40,-3.20 198.40,-92.80"/>
    </edge>
    <edge id="J3i2" from="J5" to="J3" priority="-1">
        <lane id="J3i2_0" index="0" speed="13.89" length="89.60" shape="201.60,-196.80 201.60,-107.20"/>
    </edge>
    <edge id="J3o" from="J3" to="J1" priority="-1">
        <lane id="J3o_0" index="0" speed="13.89" length="89.60" shape="201.60,-92.80 201.60,-3.20"/>
    </edge>
    <edge id="J3o2" from="J3" to="J5" priority="-1">
        <lane id="J3o2_0" index="0" speed="13.89" length="89.60" shape="198.40,-107.20 198.40,-196.80"/>
    </edge>
    <edge id="J4i" from="J3" to="J4" priority="-1">
        <lane id="J4i_0" index="0" speed="13.89" length="85.60" shape="207.20,-101.60 292.80,-101.60"/>
    </edge>
    <edge id="J4o" from="J4" to="J3" priority="-1">
        <lane id="J4o_0" index="0" speed="13.89" length="85.60" shape="292.80,-98.40 207.20,-98.40"/>
    </edge>
    <edge id="J5i" from="J6" to="J5" priority="-1">
        <lane id="J5i_0" index="0" speed="13.89" length="93.60" shape="296.80,-198.40 203.20,-198.40"/>
    </edge>
    <edge id="J5o" from="J5" to="J6" priority="-1">
        <lane id="J5o_0" index="0" speed="13.89" length="93.60" shape="203.20,-201.60 296.80,-201.60"/>
    </edge>
    <edge id="J6i" from="J4" to="J6" priority="-1">
        <lane id="J6i_0" index="0" speed="13.89" length="89.60" shape="298.40,-107.20 298.40,-196.80"/>
    </edge>
    <edge id="J6o" from="J6" to="J4" priority="-1">
        <lane id="J6o_0" index="0" speed="13.89" length="89.60" shape="301.60,-196.80 301.60,-107.20"/>
    </edge>
    <edge id="in" from="END" to="J4" priority="-1">
        <lane id="in_0" index="0" speed="13.89" length="92.80" shape="400.00,-98.40 307.20,-98.40"/>
    </edge>
    <edge id="out" from="J4" to="END" priority="-1">
        <lane id="out_0" index="0" speed="13.89" length="92.80" shape="307.20,-101.60 400.00,-101.60"/>
    </edge>

    <tlLogic id="J1" type="static" programID="0" offset="0">
        <phase duration="42" state="GG"/>
        <phase duration="3"  state="yy"/>
        <phase duration="42" state="GG"/>
        <phase duration="3"  state="yy"/>
    </tlLogic>
    <tlLogic id="J2" type="static" programID="0" offset="0">
        <phase duration="42" state="GG"/>
        <phase duration="3"  state="yy"/>
        <phase duration="42" state="GG"/>
        <phase duration="3"  state="yy"/>
    </tlLogic>
    <tlLogic id="J3" type="static" programID="0" offset="0">
        <phase duration="42" state="GgrrGG"/>
        <phase duration="3"  state="yyrryy"/>
        <phase duration="42" state="rrGGGr"/>
        <phase duration="3"  state="rryyyr"/>
    </tlLogic>
    <tlLogic id="J4" type="static" programID="0" offset="0">
        <phase duration="42" state="GGgrrrGGgrrr"/>
        <phase duration="3"  state="yyyrrryyyrrr"/>
        <phase duration="42" state="rrrGGgrrrGGg"/>
        <phase duration="3"  state="rrryyyrrryyy"/>
    </tlLogic>
    <tlLogic id="J5" type="static" programID="0" offset="0">
        <phase duration="42" state="GG"/>
        <phase duration="3"  state="yy"/>
        <phase duration="42" state="GG"/>
        <phase duration="3"  state="yy"/>
    </tlLogic>
    <tlLogic id="J6" type="static" programID="0" offset="0">
        <phase duration="42" state="GG"/>
        <phase duration="3"  state="yy"/>
        <phase duration="42" state="GG"/>
        <phase duration="3"  state="yy"/>
    </tlLogic>

    <junction id="END" type="dead_end" x="400.00" y="-100.00" incLanes="out_0" intLanes="" shape="400.00,-100.00 400.00,-103.20 400.00,-100.00"/>
    <junction id="J1" type="traffic_light" x="200.00" y="0.00" incLanes="J1i_0 J3o_0" intLanes=":J1_0_0 :J1_1_0" shape="203.20,3.20 203.20,-3.20 196.80,-3.20 197.51,0.36 198.40,1.60 199.64,2.49 201.24,3.02">
        <request index="0" response="00" foes="00" cont="0"/>
        <request index="1" response="00" foes="00" cont="0"/>
    </junction>
    <junction id="J2" type="traffic_light" x="300.00" y="0.00" incLanes="J2i_0 J1o_0" intLanes=":J2_0_0 :J2_1_0" shape="303.20,-3.20 296.80,-3.20 296.80,3.20 300.36,2.49 301.60,1.60 302.49,0.36 303.02,-1.24">
        <request index="0" response="00" foes="00" cont="0"/>
        <request index="1" response="00" foes="00" cont="0"/>
    </junction>
    <junction id="J3" type="traffic_light" x="200.00" y="-100.00" incLanes="J3i_0 J4o_0 J3i2_0" intLanes=":J3_0_0 :J3_6_0 :J3_2_0 :J3_3_0 :J3_4_0 :J3_5_0" shape="196.80,-92.80 203.20,-92.80 203.64,-95.02 204.20,-95.80 204.98,-96.36 205.98,-96.69 207.20,-96.80 207.20,-103.20 204.98,-103.64 204.20,-104.20 203.64,-104.98 203.31,-105.98 203.20,-107.20 196.80,-107.20">
        <request index="0" response="000000" foes="001000" cont="0"/>
        <request index="1" response="110000" foes="111000" cont="1"/>
        <request index="2" response="100000" foes="100000" cont="0"/>
        <request index="3" response="100011" foes="100011" cont="0"/>
        <request index="4" response="000000" foes="000010" cont="0"/>
        <request index="5" response="000000" foes="001110" cont="0"/>
    </junction>
    <junction id="J4" type="traffic_light" x="300.00" y="-100.00" incLanes="J2o_0 in_0 J6o_0 J4i_0" intLanes=":J4_0_0 :J4_1_0 :J4_12_0 :J4_3_0 :J4_4_0 :J4_13_0 :J4_6_0 :J4_7_0 :J4_14_0 :J4_9_0 :J4_10_0 :J4_15_0" shape="296.80,-92.80 303.20,-92.80 303.64,-95.02 304.20,-95.80 304.98,-96.36 305.98,-96.69 307.20,-96.80 307.20,-103.20 304.98,-103.64 304.20,-104.20 303.64,-104.98 303.31,-105.98 303.20,-107.20 296.80,-107.20 296.36,-104.98 295.80,-104.20 295.02,-103.64 294.02,-103.31 292.80,-103.20 292.80,-96.80 295.02,-96.36 295.80,-95.80 296.36,-95.02 296.69,-94.02">
        <request index="0"  response="000000000000" foes="000100010000" cont="0"/>
        <request index="1"  response="100000100000" foes="111100110000" cont="0"/>
        <request index="2"  response="100011100000" foes="110011110000" cont="1"/>
        <request index="3"  response="000010000000" foes="100010000000" cont="0"/>
        <request index="4"  response="000110000111" foes="100110000111" cont="0"/>
        <request index="5"  response="011110000110" foes="011110000110" cont="1"/>
        <request index="6"  response="000000000000" foes="010000000100" cont="0"/>
        <request index="7"  response="100000100000" foes="110000111100" cont="0"/>
        <request index="8"  response="100000100011" foes="110000110011" cont="1"/>
        <request index="9"  response="000000000010" foes="000000100010" cont="0"/>
        <request index="10" response="000111000110" foes="000111100110" cont="0"/>
        <request index="11" response="000110011110" foes="000110011110" cont="1"/>
    </junction>
    <junction id="J5" type="traffic_light" x="200.00" y="-200.00" incLanes="J3o2_0 J5i_0" intLanes=":J5_0_0 :J5_1_0" shape="196.80,-196.80 203.20,-196.80 203.20,-203.20 199.64,-202.49 198.40,-201.60 197.51,-200.36 196.98,-198.76">
        <request index="0" response="00" foes="00" cont="0"/>
        <request index="1" response="00" foes="00" cont="0"/>
    </junction>
    <junction id="J6" type="traffic_light" x="300.00" y="-200.00" incLanes="J6i_0 J5o_0" intLanes=":J6_0_0 :J6_1_0" shape="296.80,-196.80 303.20,-196.80 302.49,-200.36 301.60,-201.60 300.36,-202.49 298.76,-203.02 296.80,-203.20">
        <request index="0" response="00" foes="00" cont="0"/>
        <request index="1" response="00" foes="00" cont="0"/>
    </junction>

    <junction id=":J3_6_0" type="internal" x="200.00" y="-98.40" incLanes=":J3_1_0 J3i2_0" intLanes=":J3_3_0 :J3_4_0 :J3_5_0"/>
    <junction id=":J4_12_0" type="internal" x="300.00" y="-98.40" incLanes=":J4_2_0 J6o_0" intLanes=":J4_4_0 :J4_5_0 :J4_6_0 :J4_7_0 :J4_10_0 :J4_11_0"/>
    <junction id=":J4_13_0" type="internal" x="301.60" y="-100.00" incLanes=":J4_5_0 J4i_0" intLanes=":J4_1_0 :J4_2_0 :J4_7_0 :J4_8_0 :J4_9_0 :J4_10_0"/>
    <junction id=":J4_14_0" type="internal" x="300.00" y="-101.60" incLanes=":J4_8_0 J2o_0" intLanes=":J4_0_0 :J4_1_0 :J4_4_0 :J4_5_0 :J4_10_0 :J4_11_0"/>
    <junction id=":J4_15_0" type="internal" x="298.40" y="-100.00" incLanes=":J4_11_0 in_0" intLanes=":J4_1_0 :J4_2_0 :J4_3_0 :J4_4_0 :J4_7_0 :J4_8_0"/>

    <connection from="J1i" to="J3i" fromLane="0" toLane="0" via=":J1_0_0" tl="J1" linkIndex="0" dir="l" state="O"/>
    <connection from="J1o" to="J2o" fromLane="0" toLane="0" via=":J2_1_0" tl="J2" linkIndex="1" dir="r" state="O"/>
    <connection from="J2i" to="J1i" fromLane="0" toLane="0" via=":J2_0_0" tl="J2" linkIndex="0" dir="l" state="O"/>
    <connection from="J2o" to="J4o" fromLane="0" toLane="0" via=":J4_0_0" tl="J4" linkIndex="0" dir="r" state="O"/>
    <connection from="J2o" to="J6i" fromLane="0" toLane="0" via=":J4_1_0" tl="J4" linkIndex="1" dir="s" state="O"/>
    <connection from="J2o" to="out" fromLane="0" toLane="0" via=":J4_2_0" tl="J4" linkIndex="2" dir="l" state="o"/>
    <connection from="J3i" to="J3o2" fromLane="0" toLane="0" via=":J3_0_0" tl="J3" linkIndex="0" dir="s" state="O"/>
    <connection from="J3i" to="J4i" fromLane="0" toLane="0" via=":J3_1_0" tl="J3" linkIndex="1" dir="l" state="o"/>
    <connection from="J3i2" to="J4i" fromLane="0" toLane="0" via=":J3_4_0" tl="J3" linkIndex="4" dir="r" state="O"/>
    <connection from="J3i2" to="J3o" fromLane="0" toLane="0" via=":J3_5_0" tl="J3" linkIndex="5" dir="s" state="O"/>
    <connection from="J3o" to="J1o" fromLane="0" toLane="0" via=":J1_1_0" tl="J1" linkIndex="1" dir="r" state="O"/>
    <connection from="J3o2" to="J5o" fromLane="0" toLane="0" via=":J5_0_0" tl="J5" linkIndex="0" dir="l" state="O"/>
    <connection from="J4i" to="J6i" fromLane="0" toLane="0" via=":J4_9_0" tl="J4" linkIndex="9" dir="r" state="o"/>
    <connection from="J4i" to="out" fromLane="0" toLane="0" via=":J4_10_0" tl="J4" linkIndex="10" dir="s" state="o"/>
    <connection from="J4i" to="J2i" fromLane="0" toLane="0" via=":J4_11_0" tl="J4" linkIndex="11" dir="l" state="o"/>
    <connection from="J4o" to="J3o" fromLane="0" toLane="0" via=":J3_2_0" tl="J3" linkIndex="2" dir="r" state="o"/>
    <connection from="J4o" to="J3o2" fromLane="0" toLane="0" via=":J3_3_0" tl="J3" linkIndex="3" dir="l" state="o"/>
    <connection from="J5i" to="J3i2" fromLane="0" toLane="0" via=":J5_1_0" tl="J5" linkIndex="1" dir="r" state="O"/>
    <connection from="J5o" to="J6o" fromLane="0" toLane="0" via=":J6_1_0" tl="J6" linkIndex="1" dir="l" state="O"/>
    <connection from="J6i" to="J5i" fromLane="0" toLane="0" via=":J6_0_0" tl="J6" linkIndex="0" dir="r" state="O"/>
    <connection from="J6o" to="out" fromLane="0" toLane="0" via=":J4_6_0" tl="J4" linkIndex="6" dir="r" state="O"/>
    <connection from="J6o" to="J2i" fromLane="0" toLane="0" via=":J4_7_0" tl="J4" linkIndex="7" dir="s" state="O"/>
    <connection from="J6o" to="J4o" fromLane="0" toLane="0" via=":J4_8_0" tl="J4" linkIndex="8" dir="l" state="o"/>
    <connection from="in" to="J2i" fromLane="0" toLane="0" via=":J4_3_0" tl="J4" linkIndex="3" dir="r" state="o"/>
    <connection from="in" to="J4o" fromLane="0" toLane="0" via=":J4_4_0" tl="J4" linkIndex="4" dir="s" state="o"/>
    <connection from="in" to="J6i" fromLane="0" toLane="0" via=":J4_5_0" tl="J4" linkIndex="5" dir="l" state="o"/>

    <connection from=":J1_0" to="J3i" fromLane="0" toLane="0" dir="l" state="M"/>
    <connection from=":J1_1" to="J1o" fromLane="0" toLane="0" dir="r" state="M"/>
    <connection from=":J2_0" to="J1i" fromLane="0" toLane="0" dir="l" state="M"/>
    <connection from=":J2_1" to="J2o" fromLane="0" toLane="0" dir="r" state="M"/>
    <connection from=":J3_0" to="J3o2" fromLane="0" toLane="0" dir="s" state="M"/>
    <connection from=":J3_1" to="J4i" fromLane="0" toLane="0" via=":J3_6_0" dir="l" state="m"/>
    <connection from=":J3_6" to="J4i" fromLane="0" toLane="0" dir="l" state="M"/>
    <connection from=":J3_2" to="J3o" fromLane="0" toLane="0" dir="r" state="M"/>
    <connection from=":J3_3" to="J3o2" fromLane="0" toLane="0" dir="l" state="M"/>
    <connection from=":J3_4" to="J4i" fromLane="0" toLane="0" dir="r" state="M"/>
    <connection from=":J3_5" to="J3o" fromLane="0" toLane="0" dir="s" state="M"/>
    <connection from=":J4_0" to="J4o" fromLane="0" toLane="0" dir="r" state="M"/>
    <connection from=":J4_1" to="J6i" fromLane="0" toLane="0" dir="s" state="M"/>
    <connection from=":J4_2" to="out" fromLane="0" toLane="0" via=":J4_12_0" dir="l" state="m"/>
    <connection from=":J4_12" to="out" fromLane="0" toLane="0" dir="l" state="M"/>
    <connection from=":J4_3" to="J2i" fromLane="0" toLane="0" dir="r" state="M"/>
    <connection from=":J4_4" to="J4o" fromLane="0" toLane="0" dir="s" state="M"/>
    <connection from=":J4_5" to="J6i" fromLane="0" toLane="0" via=":J4_13_0" dir="l" state="m"/>
    <connection from=":J4_13" to="J6i" fromLane="0" toLane="0" dir="l" state="M"/>
    <connection from=":J4_6" to="out" fromLane="0" toLane="0" dir="r" state="M"/>
    <connection from=":J4_7" to="J2i" fromLane="0" toLane="0" dir="s" state="M"/>
    <connection from=":J4_8" to="J4o" fromLane="0" toLane="0" via=":J4_14_0" dir="l" state="m"/>
    <connection from=":J4_14" to="J4o" fromLane="0" toLane="0" dir="l" state="M"/>
    <connection from=":J4_9" to="J6i" fromLane="0" toLane="0" dir="r" state="M"/>
    <connection from=":J4_10" to="out" fromLane="0" toLane="0" dir="s" state="M"/>
    <connection from=":J4_11" to="J2i" fromLane="0" toLane="0" via=":J4_15_0" dir="l" state="m"/>
    <connection from=":J4_15" to="J2i" fromLane="0" toLane="0" dir="l" state="M"/>
    <connection from=":J5_0" to="J5o" fromLane="0" toLane="0" dir="l" state="M"/>
    <connection from=":J5_1" to="J3i2" fromLane="0" toLane="0" dir="r" state="M"/>
    <connection from=":J6_0" to="J5i" fromLane="0" toLane="0" dir="r" state="M"/>
    <connection from=":J6_1" to="J6o" fromLane="0" toLane="0" dir="l" state="M"/>

</net>
