<?xml version="1.0" encoding="UTF-8"?>

<!-- generated on 10/30/20 17:13:23 by Eclipse SUMO netedit Version 1.7.0
<configuration xmlns:xsi="http://www.w3.org/2001/XMLSchema-instance" xsi:noNamespaceSchemaLocation="http://sumo.dlr.de/xsd/netconvertConfiguration.xsd">

    <input>
        <sumo-net-file value="Z:\02223-Model-based-systems-engineering\sumo\testMaps\1-4TL4W-Intersection\network.net.xml"/>
    </input>

    <output>
        <output-file value="Z:\02223-Model-based-systems-engineering\sumo\testMaps\1-4TL4W-Intersection\network.net.xml"/>
    </output>

    <processing>
        <geometry.min-radius.fix.railways value="false"/>
        <geometry.max-grade.fix value="false"/>
        <offset.disable-normalization value="true"/>
        <lefthand value="false"/>
    </processing>

    <junctions>
        <no-turnarounds value="true"/>
        <junctions.corner-detail value="5"/>
        <junctions.limit-turn-speed value="5.5"/>
        <rectangular-lane-cut value="false"/>
    </junctions>

    <pedestrian>
        <walkingareas value="false"/>
    </pedestrian>

    <report>
        <aggregate-warnings value="5"/>
    </report>

</configuration>
-->

<net version="1.6" junctionCornerDetail="5" limitTurnSpeed="5.50" xmlns:xsi="http://www.w3.org/2001/XMLSchema-instance" xsi:noNamespaceSchemaLocation="http://sumo.dlr.de/xsd/net_file.xsd">

    <location netOffset="0.00,0.00" convBoundary="0.00,-100.00,200.00,100.00" origBoundary="-10000000000.00,-10000000000.00,10000000000.00,10000000000.00" projParameter="!"/>

    <edge id=":TL_0" function="internal">
        <lane id=":TL_0_0" index="0" speed="6.51" length="9.03" shape="98.40,7.20 98.05,4.75 97.00,3.00 95.25,1.95 92.80,1.60"/>
    </edge>
    <edge id=":TL_1" function="internal">
        <lane id=":TL_1_0" index="0" speed="13.89" length="14.40" shape="98.40,7.20 98.40,-7.20"/>
    </edge>
    <edge id=":TL_2" function="internal">
        <lane id=":TL_2_0" index="0" speed="8.00" length="5.93" shape="98.40,7.20 98.95,3.35 100.00,1.60"/>
    </edge>
    <edge id=":TL_12" function="internal">
        <lane id=":TL_12_0" index="0" speed="8.00" length="8.26" shape="100.00,1.60 100.60,0.60 103.35,-1.05 107.20,-1.60"/>
    </edge>
    <edge id=":TL_3" function="internal">
        <lane id=":TL_3_0" index="0" speed="6.51" length="9.03" shape="107.20,1.60 104.75,1.95 103.00,3.00 101.95,4.75 101.60,7.20"/>
    </edge>
    <edge id=":TL_4" function="internal">
        <lane id=":TL_4_0" index="0" speed="13.89" length="14.40" shape="107.20,1.60 92.80,1.60"/>
    </edge>
    <edge id=":TL_5" function="internal">
        <lane id=":TL_5_0" index="0" speed="8.00" length="5.93" shape="107.20,1.60 103.35,1.05 101.60,0.00"/>
    </edge>
    <edge id=":TL_13" function="internal">
        <lane id=":TL_13_0" index="0" speed="8.00" length="8.26" shape="101.60,0.00 100.60,-0.60 98.95,-3.35 98.40,-7.20"/>
    </edge>
    <edge id=":TL_6" function="internal">
        <lane id=":TL_6_0" index="0" speed="6.51" length="9.03" shape="101.60,-7.20 101.95,-4.75 103.00,-3.00 104.75,-1.95 107.20,-1.60"/>
    </edge>
    <edge id=":TL_7" function="internal">
        <lane id=":TL_7_0" index="0" speed="13.89" length="14.40" shape="101.60,-7.20 101.60,7.20"/>
    </edge>
    <edge id=":TL_8" function="internal">
        <lane id=":TL_8_0" index="0" speed="8.00" length="5.93" shape="101.60,-7.20 101.05,-3.35 100.00,-1.60"/>
    </edge>
    <edge id=":TL_14" function="internal">
        <lane id=":TL_14_0" index="0" speed="8.00" length="8.26" shape="100.00,-1.60 99.40,-0.60 96.65,1.05 92.80,1.60"/>
    </edge>
    <edge id=":TL_9" function="internal">
        <lane id=":TL_9_0" index="0" speed="6.51" length="9.03" shape="92.80,-1.60 95.25,-1.95 97.00,-3.00 98.05,-4.75 98.40,-7.20"/>
    </edge>
    <edge id=":TL_10" function="internal">
        <lane id=":TL_10_0" index="0" speed="13.89" length="14.40" shape="92.80,-1.60 107.20,-1.60"/>
    </edge>
    <edge id=":TL_11" function="internal">
        <lane id=":TL_11_0" index="0" speed="8.00" length="5.93" shape="92.80,-1.60 96.65,-1.05 98.40,0.00"/>
    </edge>
    <edge id=":TL_15" function="internal">
        <lane id=":TL_15_0" index="0" speed="8.00" length="8.26" shape="98.40,0.00 99.40,0.60 101.05,3.35 101.60,7.20"/>
    </edge>

    <edge id="n1i" from="TL" to="n1" priority="-1">
        <lane id="n1i_0" index="0" speed="13.89" length="92.80" shape="92.80,1.60 0.00,1.60"/>
    </edge>
    <edge id="n1o" from="n1" to="TL" priority="-1">
        <lane id="n1o_0" index="0" speed="13.89" length="92.80" shape="0.00,-1.60 92.80,-1.60"/>
    </edge>
    <edge id="n2i" from="TL" to="n2" priority="-1">
        <lane id="n2i_0" index="0" speed="13.89" length="92.80" shape="101.60,7.20 101.60,100.00"/>
    </edge>
    <edge id="n2o" from="n2" to="TL" priority="-1">
        <lane id="n2o_0" index="0" speed="13.89" length="92.80" shape="98.40,100.00 98.40,7.20"/>
    </edge>
    <edge id="TL2i" from="TL" to="M-TL" priority="-1">
        <lane id="TL2i_0" index="0" speed="13.89" length="92.80" shape="107.20,-1.60 200.00,-1.60"/>
    </edge>
    <edge id="TL2o" from="M-TL" to="TL" priority="-1">
        <lane id="TL2o_0" index="0" speed="13.89" length="92.80" shape="200.00,1.60 107.20,1.60"/>
    </edge>
    <edge id="n4i" from="TL" to="n4" priority="-1">
        <lane id="n4i_0" index="0" speed="13.89" length="92.80" shape="98.40,-7.20 98.40,-100.00"/>
    </edge>
    <edge id="n4o" from="n4" to="TL" priority="-1">
        <lane id="n4o_0" index="0" speed="13.89" length="92.80" shape="101.60,-100.00 101.60,-7.20"/>
    </edge>

    <!-- Traffic light phase cycle: Green - Yellow - Red -
     Red-yellow comb - wrap around -->

    <tlLogic id="TL" type="static" programID="0" offset="0">
        <!-- Vertical phase while horizontal is red -->
        <phase duration="40" state="gggrrrgggrrr" name="vGreen_hRed" /> <!-- resting for dynamic -->
        <phase duration="10" state="yyyrrryyyrrr" name="vYellow_hRed" />
        <phase duration="10" state="rrrrrrrrrrrr" name="vRed_hRed" />
        <phase duration="10" state="rrruuurrruuu" name="vRed_hOrange"/>
         <!-- Horizontal phase while vertical is red -->
        <phase duration="40" state="rrrgggrrrggg" name="vRed_hGreen"/> <!-- or this resting for dynamic -->
        <phase duration="10" state="rrryyyrrryyy" name="vRed_hYellow" />
        <phase duration="10" state="rrrrrrrrrrrr" name="vRed_hRed" />
        <phase duration="10" state="uuurrruuurrr" name="vOrange_hRed"/>
    </tlLogic>

    <junction id="TL" type="traffic_light" x="100.00" y="0.00" incLanes="n2o_0 TL2o_0 n4o_0 n1o_0" intLanes=":TL_0_0 :TL_1_0 :TL_12_0 :TL_3_0 :TL_4_0 :TL_13_0 :TL_6_0 :TL_7_0 :TL_14_0 :TL_9_0 :TL_10_0 :TL_15_0" shape="96.80,7.20 103.20,7.20 103.64,4.98 104.20,4.20 104.98,3.64 105.98,3.31 107.20,3.20 107.20,-3.20 104.98,-3.64 104.20,-4.20 103.64,-4.98 103.31,-5.98 103.20,-7.20 96.80,-7.20 96.36,-4.98 95.80,-4.20 95.02,-3.64 94.02,-3.31 92.80,-3.20 92.80,3.20 95.02,3.64 95.80,4.20 96.36,4.98 96.69,5.98">
        <request index="0"  response="000000000000" foes="000100010000" cont="0"/>
        <request index="1"  response="100000100000" foes="111100110000" cont="0"/>
        <request index="2"  response="100011100000" foes="110011110000" cont="1"/>
        <request index="3"  response="000010000000" foes="100010000000" cont="0"/>
        <request index="4"  response="000110000111" foes="100110000111" cont="0"/>
        <request index="5"  response="011110000110" foes="011110000110" cont="1"/>
        <request index="6"  response="000000000000" foes="010000000100" cont="0"/>
        <request index="7"  response="100000100000" foes="110000111100" cont="0"/>
        <request index="8"  response="100000100011" foes="110000110011" cont="1"/>
        <request index="9"  response="000000000010" foes="000000100010" cont="0"/>
        <request index="10" response="000111000110" foes="000111100110" cont="0"/>
        <request index="11" response="000110011110" foes="000110011110" cont="1"/>
    </junction>
    <junction id="n1" type="dead_end" x="0.00" y="0.00" incLanes="n1i_0" intLanes="" shape="0.00,0.00 0.00,3.20 0.00,0.00"/>
    <junction id="n2" type="dead_end" x="100.00" y="100.00" incLanes="n2i_0" intLanes="" shape="100.00,100.00 103.20,100.00 100.00,100.00"/>
    <junction id="M-TL" type="dead_end" x="200.00" y="0.00" incLanes="TL2i_0" intLanes="" shape="200.00,0.00 200.00,-3.20 200.00,0.00"/>
    <junction id="n4" type="dead_end" x="100.00" y="-100.00" incLanes="n4i_0" intLanes="" shape="100.00,-100.00 96.80,-100.00 100.00,-100.00"/>

    <junction id=":TL_12_0" type="internal" x="100.00" y="1.60" incLanes=":TL_2_0 n4o_0" intLanes=":TL_4_0 :TL_5_0 :TL_6_0 :TL_7_0 :TL_10_0 :TL_11_0"/>
    <junction id=":TL_13_0" type="internal" x="101.60" y="0.00" incLanes=":TL_5_0 n1o_0" intLanes=":TL_1_0 :TL_2_0 :TL_7_0 :TL_8_0 :TL_9_0 :TL_10_0"/>
    <junction id=":TL_14_0" type="internal" x="100.00" y="-1.60" incLanes=":TL_8_0 n2o_0" intLanes=":TL_0_0 :TL_1_0 :TL_4_0 :TL_5_0 :TL_10_0 :TL_11_0"/>
    <junction id=":TL_15_0" type="internal" x="98.40" y="0.00" incLanes=":TL_11_0 TL2o_0" intLanes=":TL_1_0 :TL_2_0 :TL_3_0 :TL_4_0 :TL_7_0 :TL_8_0"/>

    <connection from="n1o" to="n4i" fromLane="0" toLane="0" via=":TL_9_0" tl="TL" linkIndex="9" dir="r" state="o"/>
    <connection from="n1o" to="TL2i" fromLane="0" toLane="0" via=":TL_10_0" tl="TL" linkIndex="10" dir="s" state="o"/>
    <connection from="n1o" to="n2i" fromLane="0" toLane="0" via=":TL_11_0" tl="TL" linkIndex="11" dir="l" state="o"/>
    <connection from="n2o" to="n1i" fromLane="0" toLane="0" via=":TL_0_0" tl="TL" linkIndex="0" dir="r" state="O"/>
    <connection from="n2o" to="n4i" fromLane="0" toLane="0" via=":TL_1_0" tl="TL" linkIndex="1" dir="s" state="O"/>
    <connection from="n2o" to="TL2i" fromLane="0" toLane="0" via=":TL_2_0" tl="TL" linkIndex="2" dir="l" state="o"/>
    <connection from="TL2o" to="n2i" fromLane="0" toLane="0" via=":TL_3_0" tl="TL" linkIndex="3" dir="r" state="o"/>
    <connection from="TL2o" to="n1i" fromLane="0" toLane="0" via=":TL_4_0" tl="TL" linkIndex="4" dir="s" state="o"/>
    <connection from="TL2o" to="n4i" fromLane="0" toLane="0" via=":TL_5_0" tl="TL" linkIndex="5" dir="l" state="o"/>
    <connection from="n4o" to="TL2i" fromLane="0" toLane="0" via=":TL_6_0" tl="TL" linkIndex="6" dir="r" state="O"/>
    <connection from="n4o" to="n2i" fromLane="0" toLane="0" via=":TL_7_0" tl="TL" linkIndex="7" dir="s" state="O"/>
    <connection from="n4o" to="n1i" fromLane="0" toLane="0" via=":TL_8_0" tl="TL" linkIndex="8" dir="l" state="o"/>

    <connection from=":TL_0" to="n1i" fromLane="0" toLane="0" dir="r" state="M"/>
    <connection from=":TL_1" to="n4i" fromLane="0" toLane="0" dir="s" state="M"/>
    <connection from=":TL_2" to="TL2i" fromLane="0" toLane="0" via=":TL_12_0" dir="l" state="m"/>
    <connection from=":TL_12" to="TL2i" fromLane="0" toLane="0" dir="l" state="M"/>
    <connection from=":TL_3" to="n2i" fromLane="0" toLane="0" dir="r" state="M"/>
    <connection from=":TL_4" to="n1i" fromLane="0" toLane="0" dir="s" state="M"/>
    <connection from=":TL_5" to="n4i" fromLane="0" toLane="0" via=":TL_13_0" dir="l" state="m"/>
    <connection from=":TL_13" to="n4i" fromLane="0" toLane="0" dir="l" state="M"/>
    <connection from=":TL_6" to="TL2i" fromLane="0" toLane="0" dir="r" state="M"/>
    <connection from=":TL_7" to="n2i" fromLane="0" toLane="0" dir="s" state="M"/>
    <connection from=":TL_8" to="n1i" fromLane="0" toLane="0" via=":TL_14_0" dir="l" state="m"/>
    <connection from=":TL_14" to="n1i" fromLane="0" toLane="0" dir="l" state="M"/>
    <connection from=":TL_9" to="n4i" fromLane="0" toLane="0" dir="r" state="M"/>
    <connection from=":TL_10" to="TL2i" fromLane="0" toLane="0" dir="s" state="M"/>
    <connection from=":TL_11" to="n2i" fromLane="0" toLane="0" via=":TL_15_0" dir="l" state="m"/>
    <connection from=":TL_15" to="n2i" fromLane="0" toLane="0" dir="l" state="M"/>

</net>
