<?xml version="1.0" encoding="UTF-8"?>

<!-- generated on 10/08/20 14:24:27 by Eclipse SUMO netedit Version 1.7.0
<configuration xmlns:xsi="http://www.w3.org/2001/XMLSchema-instance" xsi:noNamespaceSchemaLocation="http://sumo.dlr.de/xsd/netconvertConfiguration.xsd">

    <input>
        <sumo-net-file value="C:\Users\iyyel\Documents\SUMO\Maps\Circular-Lane\intersection.net.xml"/>
    </input>

    <output>
        <output-file value="C:\Users\iyyel\Documents\SUMO\Maps\Circular-Lane\intersection.net.xml"/>
    </output>

    <processing>
        <geometry.min-radius.fix.railways value="false"/>
        <geometry.max-grade.fix value="false"/>
        <offset.disable-normalization value="true"/>
        <lefthand value="false"/>
    </processing>

    <junctions>
        <no-turnarounds value="true"/>
        <junctions.corner-detail value="5"/>
        <junctions.limit-turn-speed value="5.5"/>
        <rectangular-lane-cut value="false"/>
    </junctions>

    <pedestrian>
        <walkingareas value="false"/>
    </pedestrian>

    <report>
        <aggregate-warnings value="5"/>
    </report>

</configuration>
-->

<net version="1.6" junctionCornerDetail="5" limitTurnSpeed="5.50" xmlns:xsi="http://www.w3.org/2001/XMLSchema-instance" xsi:noNamespaceSchemaLocation="http://sumo.dlr.de/xsd/net_file.xsd">

    <location netOffset="0.00,0.00" convBoundary="200.00,-100.00,300.00,0.00" origBoundary="-10000000000.00,-10000000000.00,10000000000.00,10000000000.00" projParameter="!"/>

    <edge id=":J1_0" function="internal">
        <lane id=":J1_0_0" index="0" speed="3.90" length="2.58" shape="201.60,-3.20 201.70,-2.50 202.00,-2.00 202.50,-1.70 203.20,-1.60"/>
    </edge>
    <edge id=":J2_0" function="internal">
        <lane id=":J2_0_0" index="0" speed="3.90" length="2.58" shape="296.80,-1.60 297.50,-1.70 298.00,-2.00 298.30,-2.50 298.40,-3.20"/>
    </edge>
    <edge id=":J3_0" function="internal">
        <lane id=":J3_0_0" index="0" speed="3.90" length="2.58" shape="298.40,-96.80 298.30,-97.50 298.00,-98.00 297.50,-98.30 296.80,-98.40"/>
    </edge>
    <edge id=":J4_0" function="internal">
        <lane id=":J4_0_0" index="0" speed="3.90" length="2.58" shape="203.20,-98.40 202.50,-98.30 202.00,-98.00 201.70,-97.50 201.60,-96.80"/>
    </edge>

    <edge id="E1" from="J1" to="J2" priority="-1">
        <lane id="E1_0" index="0" speed="13.89" length="93.60" shape="203.20,-1.60 296.80,-1.60"/>
    </edge>
    <edge id="E2" from="J2" to="J3" priority="-1">
        <lane id="E2_0" index="0" speed="13.89" length="93.60" shape="298.40,-3.20 298.40,-96.80"/>
    </edge>
    <edge id="E3" from="J3" to="J4" priority="-1">
        <lane id="E3_0" index="0" speed="13.89" length="93.60" shape="296.80,-98.40 203.20,-98.40"/>
    </edge>
    <edge id="E4" from="J4" to="J1" priority="-1">
        <lane id="E4_0" index="0" speed="13.89" length="93.60" shape="201.60,-96.80 201.60,-3.20"/>
    </edge>

    <tlLogic id="J1" type="static" programID="0" offset="0">
        <phase duration="82" state="G"/>
        <phase duration="3"  state="y"/>
        <phase duration="5"  state="r"/>
    </tlLogic>
    <tlLogic id="J2" type="static" programID="0" offset="0">
        <phase duration="82" state="G"/>
        <phase duration="3"  state="y"/>
        <phase duration="5"  state="r"/>
    </tlLogic>
    <tlLogic id="J3" type="static" programID="0" offset="0">
        <phase duration="82" state="G"/>
        <phase duration="3"  state="y"/>
        <phase duration="5"  state="r"/>
    </tlLogic>
    <tlLogic id="J4" type="static" programID="0" offset="0">
        <phase duration="82" state="G"/>
        <phase duration="3"  state="y"/>
        <phase duration="5"  state="r"/>
    </tlLogic>

    <junction id="J1" type="traffic_light" x="200.00" y="0.00" incLanes="E4_0" intLanes=":J1_0_0" shape="203.20,0.00 203.20,-3.20 200.00,-3.20 200.36,-1.42 200.80,-0.80 201.42,-0.36 202.22,-0.09">
        <request index="0" response="0" foes="0" cont="0"/>
    </junction>
    <junction id="J2" type="traffic_light" x="300.00" y="0.00" incLanes="E1_0" intLanes=":J2_0_0" shape="300.00,-3.20 296.80,-3.20 296.80,0.00 298.58,-0.36 299.20,-0.80 299.64,-1.42 299.91,-2.22">
        <request index="0" response="0" foes="0" cont="0"/>
    </junction>
    <junction id="J3" type="traffic_light" x="300.00" y="-100.00" incLanes="E2_0" intLanes=":J3_0_0" shape="296.80,-96.80 300.00,-96.80 299.64,-98.58 299.20,-99.20 298.58,-99.64 297.78,-99.91 296.80,-100.00">
        <request index="0" response="0" foes="0" cont="0"/>
    </junction>
    <junction id="J4" type="traffic_light" x="200.00" y="-100.00" incLanes="E3_0" intLanes=":J4_0_0" shape="200.00,-96.80 203.20,-96.80 203.20,-100.00 201.42,-99.64 200.80,-99.20 200.36,-98.58 200.09,-97.78">
        <request index="0" response="0" foes="0" cont="0"/>
    </junction>

    <connection from="E1" to="E2" fromLane="0" toLane="0" via=":J2_0_0" tl="J2" linkIndex="0" dir="r" state="O"/>
    <connection from="E2" to="E3" fromLane="0" toLane="0" via=":J3_0_0" tl="J3" linkIndex="0" dir="r" state="O"/>
    <connection from="E3" to="E4" fromLane="0" toLane="0" via=":J4_0_0" tl="J4" linkIndex="0" dir="r" state="O"/>
    <connection from="E4" to="E1" fromLane="0" toLane="0" via=":J1_0_0" tl="J1" linkIndex="0" dir="r" state="O"/>

    <connection from=":J1_0" to="E1" fromLane="0" toLane="0" dir="r" state="M"/>
    <connection from=":J2_0" to="E2" fromLane="0" toLane="0" dir="r" state="M"/>
    <connection from=":J3_0" to="E3" fromLane="0" toLane="0" dir="r" state="M"/>
    <connection from=":J4_0" to="E4" fromLane="0" toLane="0" dir="r" state="M"/>

</net>
