<configuration xmlns:xsi="http://www.w3.org/2001/XMLSchema-instance" xsi:noNamespaceSchemaLocation="http://sumo.dlr.de/xsd/sumoConfiguration.xsd">

    <input>
        <net-file value="network.net.xml"/>
	    <route-files value="routes.rou.xml"/>
    </input>

    <additional-files value="tazs.add.xml,stops.add.xml,e2Detector.add.xml" />

</configuration>