<?xml version="1.0" encoding="UTF-8"?>

<additional xmlns:xsi="http://www.w3.org/2001/XMLSchema-instance" xsi:noNamespaceSchemaLocation="http://sumo.dlr.de/xsd/additional_file.xsd">

    <e2Detector id="e2Detector_T0i_0" lane="T0i_0" endPos="-0.50" length="50" freq="900.00" file="e2Detector/e2Detector_T0i_0.xml"/>
    <e2Detector id="e2Detector_T1i_0" lane="T1i_0" endPos="-0.50" length="50" freq="900.00" file="e2Detector/e2Detector_T1i_0.xml"/>

    <e2Detector id="e2Detector_B0i_0" lane="B0i_0" endPos="-0.50" length="50" freq="900.00" file="e2Detector/e2Detector_B0i_0.xml"/>
    <e2Detector id="e2Detector_B1i_0" lane="B1i_0" endPos="-0.50" length="50" freq="900.00" file="e2Detector/e2Detector_B1i_0.xml"/>

    <e2Detector id="e2Detector_L0i_0" lane="L0i_0" endPos="-0.50" length="50" freq="900.00" file="e2Detector/e2Detector_L0i_0.xml"/>
    <e2Detector id="e2Detector_L1i_0" lane="L1i_0" endPos="-0.50" length="50" freq="900.00" file="e2Detector/e2Detector_L1i_0.xml"/>

    <e2Detector id="e2Detector_R0i_0" lane="R0i_0" endPos="-0.50" length="50" freq="900.00" file="e2Detector/e2Detector_R0i_0.xml"/>
    <e2Detector id="e2Detector_R1i_0" lane="R1i_0" endPos="-0.50" length="50" freq="900.00" file="e2Detector/e2Detector_R1i_0.xml"/>

    <e2Detector id="e2Detector_TL-TL-d_0" lane="TL-TL-d_0" endPos="-0.50" length="50" freq="900.00" file="e2Detector/e2Detector_TL-TL-d_0.xml"/>
    <e2Detector id="e2Detector_TL-TL-d_1" lane="TL-TL-d_1" endPos="-0.50" length="50" freq="900.00" file="e2Detector/e2Detector_TL-TL-d_1.xml"/>
    <e2Detector id="e2Detector_TL-TL-u_0" lane="TL-TL-u_0" endPos="-0.50" length="50" freq="900.00" file="e2Detector/e2Detector_TL-TL-u_0.xml"/>
    <e2Detector id="e2Detector_TL-TL-u_1" lane="TL-TL-u_1" endPos="-0.50" length="50" freq="900.00" file="e2Detector/e2Detector_TL-TL-u_1.xml"/>

    <e2Detector id="e2Detector_BR-TL-d_0" lane="BR-TL-d_0" endPos="-0.50" length="50" freq="900.00" file="e2Detector/e2Detector_BR-TL-d_0.xml"/>
    <e2Detector id="e2Detector_BR-TL-d_1" lane="BR-TL-d_1" endPos="-0.50" length="50" freq="900.00" file="e2Detector/e2Detector_BR-TL-d_1.xml"/>
    <e2Detector id="e2Detector_BR-TL-u_0" lane="BR-TL-u_0" endPos="-0.50" length="50" freq="900.00" file="e2Detector/e2Detector_BR-TL-u_0.xml"/>
    <e2Detector id="e2Detector_BR-TL-u_1" lane="BR-TL-u_1" endPos="-0.50" length="50" freq="900.00" file="e2Detector/e2Detector_BR-TL-u_1.xml"/>

    <e2Detector id="e2Detector_TR-TL-r_0" lane="TR-TL-r_0" endPos="-0.50" length="50" freq="900.00" file="e2Detector/e2Detector_TR-TL-r_0.xml"/>
    <e2Detector id="e2Detector_TR-TL-r_1" lane="TR-TL-r_1" endPos="-0.50" length="50" freq="900.00" file="e2Detector/e2Detector_TR-TL-r_1.xml"/>
    <e2Detector id="e2Detector_TR-TL-l_0" lane="TR-TL-l_0" endPos="-0.50" length="50" freq="900.00" file="e2Detector/e2Detector_TR-TL-l_0.xml"/>
    <e2Detector id="e2Detector_TR-TL-l_1" lane="TR-TL-l_1" endPos="-0.50" length="50" freq="900.00" file="e2Detector/e2Detector_TR-TL-l_1.xml"/>

    <e2Detector id="e2Detector_BL-TL-r_0" lane="BL-TL-r_0" endPos="-0.50" length="50" freq="900.00" file="e2Detector/e2Detector_BL-TL-r_0.xml"/>
    <e2Detector id="e2Detector_BL-TL-r_1" lane="BL-TL-r_1" endPos="-0.50" length="50" freq="900.00" file="e2Detector/e2Detector_BL-TL-r_1.xml"/>
    <e2Detector id="e2Detector_BL-TL-l_0" lane="BL-TL-l_0" endPos="-0.50" length="50" freq="900.00" file="e2Detector/e2Detector_BL-TL-l_0.xml"/>
    <e2Detector id="e2Detector_BL-TL-l_1" lane="BL-TL-l_1" endPos="-0.50" length="50" freq="900.00" file="e2Detector/e2Detector_BL-TL-l_1.xml"/>

<!--
    <laneAreaDetector id="E2:L0o_0" lane="L0o_0" file="E2-L0o_0.xml" freq="1" pos="60" length="15"/>
-->

</additional>




