<?xml version="1.0" encoding="UTF-8"?>

<!-- generated on Fre 23 Okt 18:15:22 2020 by Eclipse SUMO netedit Version 1.7.0
<configuration xmlns:xsi="http://www.w3.org/2001/XMLSchema-instance" xsi:noNamespaceSchemaLocation="http://sumo.dlr.de/xsd/netconvertConfiguration.xsd">

    <input>
        <sumo-net-file value="/Users/heino/Downloads/02223-Model-based-systems-engineering-master/sumo/4-4TL4W-Intersection/network.net.xml"/>
    </input>

    <output>
        <output-file value="/Users/heino/Downloads/02223-Model-based-systems-engineering-master/sumo/4-4TL4W-Intersection/network.net.xml"/>
    </output>

    <processing>
        <geometry.min-radius.fix.railways value="false"/>
        <geometry.max-grade.fix value="false"/>
        <offset.disable-normalization value="true"/>
        <lefthand value="false"/>
    </processing>

    <junctions>
        <no-turnarounds value="true"/>
        <junctions.corner-detail value="5"/>
        <junctions.limit-turn-speed value="5.5"/>
        <rectangular-lane-cut value="false"/>
    </junctions>

    <pedestrian>
        <walkingareas value="false"/>
    </pedestrian>

    <report>
        <aggregate-warnings value="5"/>
    </report>

</configuration>
-->

<net version="1.6" junctionCornerDetail="5" limitTurnSpeed="5.50" xmlns:xsi="http://www.w3.org/2001/XMLSchema-instance" xsi:noNamespaceSchemaLocation="http://sumo.dlr.de/xsd/net_file.xsd">

    <location netOffset="0.00,0.00" convBoundary="0.00,-100.00,300.00,200.00" origBoundary="-10000000000.00,-10000000000.00,10000000000.00,10000000000.00" projParameter="!"/>

    <edge id=":BL-TL_0" function="internal">
        <lane id=":BL-TL_0_0" index="0" speed="7.33" length="11.73" shape="95.20,10.40 94.85,6.55 93.80,3.80 92.05,2.15 89.60,1.60"/>
    </edge>
    <edge id=":BL-TL_1" function="internal">
        <lane id=":BL-TL_1_0" index="0" speed="13.89" length="21.09" shape="95.20,10.40 95.70,3.63 96.80,-1.88 97.90,-6.45 98.40,-10.40"/>
    </edge>
    <edge id=":BL-TL_2" function="internal">
        <lane id=":BL-TL_2_0" index="0" speed="9.26" length="19.35" shape="98.40,10.40 99.15,5.15 101.40,1.40 105.15,-0.85 110.40,-1.60"/>
    </edge>
    <edge id=":BL-TL_3" function="internal">
        <lane id=":BL-TL_3_0" index="0" speed="6.51" length="9.03" shape="110.40,4.80 107.95,5.15 106.20,6.20 105.15,7.95 104.80,10.40"/>
    </edge>
    <edge id=":BL-TL_4" function="internal">
        <lane id=":BL-TL_4_0" index="0" speed="13.89" length="21.09" shape="110.40,4.80 103.63,4.30 98.12,3.20 93.55,2.10 89.60,1.60"/>
    </edge>
    <edge id=":BL-TL_5" function="internal">
        <lane id=":BL-TL_5_0" index="0" speed="9.26" length="5.08" shape="110.40,1.60 105.37,0.88"/>
    </edge>
    <edge id=":BL-TL_12" function="internal">
        <lane id=":BL-TL_12_0" index="0" speed="9.26" length="14.28" shape="105.37,0.88 105.15,0.85 101.40,-1.40 99.15,-5.15 98.40,-10.40"/>
    </edge>
    <edge id=":BL-TL_6" function="internal">
        <lane id=":BL-TL_6_0" index="0" speed="7.33" length="11.73" shape="101.60,-10.40 102.15,-7.95 103.80,-6.20 106.55,-5.15 110.40,-4.80"/>
    </edge>
    <edge id=":BL-TL_7" function="internal">
        <lane id=":BL-TL_7_0" index="0" speed="13.89" length="20.80" shape="101.60,-10.40 101.60,10.40"/>
    </edge>
    <edge id=":BL-TL_8" function="internal">
        <lane id=":BL-TL_8_0" index="0" speed="9.26" length="19.35" shape="101.60,-10.40 100.85,-5.15 98.60,-1.40 94.85,0.85 89.60,1.60"/>
    </edge>
    <edge id=":BL-TL_9" function="internal">
        <lane id=":BL-TL_9_0" index="0" speed="8.00" length="14.19" shape="89.60,-1.60 93.45,-2.15 96.20,-3.80 97.85,-6.55 98.40,-10.40"/>
    </edge>
    <edge id=":BL-TL_10" function="internal">
        <lane id=":BL-TL_10_0" index="0" speed="13.89" length="20.80" shape="89.60,-1.60 110.40,-1.60"/>
    </edge>
    <edge id=":BL-TL_11" function="internal">
        <lane id=":BL-TL_11_0" index="0" speed="9.26" length="19.35" shape="89.60,-1.60 94.85,-0.85 98.60,1.40 100.85,5.15 101.60,10.40"/>
    </edge>
    <edge id=":BR-TL_0" function="internal">
        <lane id=":BR-TL_0_0" index="0" speed="6.51" length="9.03" shape="195.20,10.40 194.85,7.95 193.80,6.20 192.05,5.15 189.60,4.80"/>
    </edge>
    <edge id=":BR-TL_1" function="internal">
        <lane id=":BR-TL_1_0" index="0" speed="13.89" length="21.09" shape="195.20,10.40 195.70,3.63 196.80,-1.88 197.90,-6.45 198.40,-10.40"/>
    </edge>
    <edge id=":BR-TL_2" function="internal">
        <lane id=":BR-TL_2_0" index="0" speed="9.26" length="5.08" shape="198.40,10.40 199.12,5.37"/>
    </edge>
    <edge id=":BR-TL_12" function="internal">
        <lane id=":BR-TL_12_0" index="0" speed="9.26" length="14.28" shape="199.12,5.37 199.15,5.15 201.40,1.40 205.15,-0.85 210.40,-1.60"/>
    </edge>
    <edge id=":BR-TL_3" function="internal">
        <lane id=":BR-TL_3_0" index="0" speed="7.33" length="11.73" shape="210.40,1.60 207.95,2.15 206.20,3.80 205.15,6.55 204.80,10.40"/>
    </edge>
    <edge id=":BR-TL_4" function="internal">
        <lane id=":BR-TL_4_0" index="0" speed="13.89" length="20.80" shape="210.40,1.60 189.60,1.60"/>
    </edge>
    <edge id=":BR-TL_5" function="internal">
        <lane id=":BR-TL_5_0" index="0" speed="9.26" length="19.35" shape="210.40,1.60 205.15,0.85 201.40,-1.40 199.15,-5.15 198.40,-10.40"/>
    </edge>
    <edge id=":BR-TL_6" function="internal">
        <lane id=":BR-TL_6_0" index="0" speed="8.00" length="14.19" shape="201.60,-10.40 202.15,-6.55 203.80,-3.80 206.55,-2.15 210.40,-1.60"/>
    </edge>
    <edge id=":BR-TL_7" function="internal">
        <lane id=":BR-TL_7_0" index="0" speed="13.89" length="20.80" shape="201.60,-10.40 201.60,10.40"/>
    </edge>
    <edge id=":BR-TL_8" function="internal">
        <lane id=":BR-TL_8_0" index="0" speed="9.26" length="19.35" shape="201.60,-10.40 200.85,-5.15 198.60,-1.40 194.85,0.85 189.60,1.60"/>
    </edge>
    <edge id=":BR-TL_9" function="internal">
        <lane id=":BR-TL_9_0" index="0" speed="7.33" length="11.73" shape="189.60,-4.80 193.45,-5.15 196.20,-6.20 197.85,-7.95 198.40,-10.40"/>
    </edge>
    <edge id=":BR-TL_10" function="internal">
        <lane id=":BR-TL_10_0" index="0" speed="13.89" length="21.09" shape="189.60,-4.80 196.37,-4.30 201.88,-3.20 206.45,-2.10 210.40,-1.60"/>
    </edge>
    <edge id=":BR-TL_11" function="internal">
        <lane id=":BR-TL_11_0" index="0" speed="9.26" length="19.35" shape="189.60,-1.60 194.85,-0.85 198.60,1.40 200.85,5.15 201.60,10.40"/>
    </edge>
    <edge id=":TL-TL_0" function="internal">
        <lane id=":TL-TL_0_0" index="0" speed="8.00" length="14.19" shape="98.40,110.40 97.85,106.55 96.20,103.80 93.45,102.15 89.60,101.60"/>
    </edge>
    <edge id=":TL-TL_1" function="internal">
        <lane id=":TL-TL_1_0" index="0" speed="13.89" length="20.80" shape="98.40,110.40 98.40,89.60"/>
    </edge>
    <edge id=":TL-TL_2" function="internal">
        <lane id=":TL-TL_2_0" index="0" speed="9.26" length="19.35" shape="98.40,110.40 99.15,105.15 101.40,101.40 105.15,99.15 110.40,98.40"/>
    </edge>
    <edge id=":TL-TL_3" function="internal">
        <lane id=":TL-TL_3_0" index="0" speed="7.33" length="11.73" shape="110.40,104.80 106.55,105.15 103.80,106.20 102.15,107.95 101.60,110.40"/>
    </edge>
    <edge id=":TL-TL_4" function="internal">
        <lane id=":TL-TL_4_0" index="0" speed="13.89" length="21.09" shape="110.40,104.80 103.63,104.30 98.12,103.20 93.55,102.10 89.60,101.60"/>
    </edge>
    <edge id=":TL-TL_5" function="internal">
        <lane id=":TL-TL_5_0" index="0" speed="9.26" length="19.35" shape="110.40,101.60 105.15,100.85 101.40,98.60 99.15,94.85 98.40,89.60"/>
    </edge>
    <edge id=":TL-TL_6" function="internal">
        <lane id=":TL-TL_6_0" index="0" speed="6.51" length="9.03" shape="104.80,89.60 105.15,92.05 106.20,93.80 107.95,94.85 110.40,95.20"/>
    </edge>
    <edge id=":TL-TL_7" function="internal">
        <lane id=":TL-TL_7_0" index="0" speed="13.89" length="21.09" shape="104.80,89.60 104.30,96.37 103.20,101.88 102.10,106.45 101.60,110.40"/>
    </edge>
    <edge id=":TL-TL_8" function="internal">
        <lane id=":TL-TL_8_0" index="0" speed="9.26" length="5.08" shape="101.60,89.60 100.88,94.63"/>
    </edge>
    <edge id=":TL-TL_12" function="internal">
        <lane id=":TL-TL_12_0" index="0" speed="9.26" length="14.28" shape="100.88,94.63 100.85,94.85 98.60,98.60 94.85,100.85 89.60,101.60"/>
    </edge>
    <edge id=":TL-TL_9" function="internal">
        <lane id=":TL-TL_9_0" index="0" speed="7.33" length="11.73" shape="89.60,98.40 92.05,97.85 93.80,96.20 94.85,93.45 95.20,89.60"/>
    </edge>
    <edge id=":TL-TL_10" function="internal">
        <lane id=":TL-TL_10_0" index="0" speed="13.89" length="20.80" shape="89.60,98.40 110.40,98.40"/>
    </edge>
    <edge id=":TL-TL_11" function="internal">
        <lane id=":TL-TL_11_0" index="0" speed="9.26" length="19.35" shape="89.60,98.40 94.85,99.15 98.60,101.40 100.85,105.15 101.60,110.40"/>
    </edge>
    <edge id=":TR-TL_0" function="internal">
        <lane id=":TR-TL_0_0" index="0" speed="7.33" length="11.73" shape="198.40,110.40 197.85,107.95 196.20,106.20 193.45,105.15 189.60,104.80"/>
    </edge>
    <edge id=":TR-TL_1" function="internal">
        <lane id=":TR-TL_1_0" index="0" speed="13.89" length="20.80" shape="198.40,110.40 198.40,89.60"/>
    </edge>
    <edge id=":TR-TL_2" function="internal">
        <lane id=":TR-TL_2_0" index="0" speed="9.26" length="19.35" shape="198.40,110.40 199.15,105.15 201.40,101.40 205.15,99.15 210.40,98.40"/>
    </edge>
    <edge id=":TR-TL_3" function="internal">
        <lane id=":TR-TL_3_0" index="0" speed="8.00" length="14.19" shape="210.40,101.60 206.55,102.15 203.80,103.80 202.15,106.55 201.60,110.40"/>
    </edge>
    <edge id=":TR-TL_4" function="internal">
        <lane id=":TR-TL_4_0" index="0" speed="13.89" length="20.80" shape="210.40,101.60 189.60,101.60"/>
    </edge>
    <edge id=":TR-TL_5" function="internal">
        <lane id=":TR-TL_5_0" index="0" speed="9.26" length="19.35" shape="210.40,101.60 205.15,100.85 201.40,98.60 199.15,94.85 198.40,89.60"/>
    </edge>
    <edge id=":TR-TL_6" function="internal">
        <lane id=":TR-TL_6_0" index="0" speed="7.33" length="11.73" shape="204.80,89.60 205.15,93.45 206.20,96.20 207.95,97.85 210.40,98.40"/>
    </edge>
    <edge id=":TR-TL_7" function="internal">
        <lane id=":TR-TL_7_0" index="0" speed="13.89" length="21.09" shape="204.80,89.60 204.30,96.37 203.20,101.88 202.10,106.45 201.60,110.40"/>
    </edge>
    <edge id=":TR-TL_8" function="internal">
        <lane id=":TR-TL_8_0" index="0" speed="9.26" length="19.35" shape="201.60,89.60 200.85,94.85 198.60,98.60 194.85,100.85 189.60,101.60"/>
    </edge>
    <edge id=":TR-TL_9" function="internal">
        <lane id=":TR-TL_9_0" index="0" speed="6.51" length="9.03" shape="189.60,95.20 192.05,94.85 193.80,93.80 194.85,92.05 195.20,89.60"/>
    </edge>
    <edge id=":TR-TL_10" function="internal">
        <lane id=":TR-TL_10_0" index="0" speed="13.89" length="21.09" shape="189.60,95.20 196.37,95.70 201.88,96.80 206.45,97.90 210.40,98.40"/>
    </edge>
    <edge id=":TR-TL_11" function="internal">
        <lane id=":TR-TL_11_0" index="0" speed="9.26" length="5.08" shape="189.60,98.40 194.63,99.12"/>
    </edge>
    <edge id=":TR-TL_12" function="internal">
        <lane id=":TR-TL_12_0" index="0" speed="9.26" length="14.28" shape="194.63,99.12 194.85,99.15 198.60,101.40 200.85,105.15 201.60,110.40"/>
    </edge>

    <edge id="B0i" from="B0" to="BL-TL" priority="-1">
        <lane id="B0i_0" index="0" speed="13.89" length="89.60" shape="101.60,-100.00 101.60,-10.40"/>
    </edge>
    <edge id="B0o" from="BL-TL" to="B0" priority="-1">
        <lane id="B0o_0" index="0" speed="13.89" length="89.60" shape="98.40,-10.40 98.40,-100.00"/>
    </edge>
    <edge id="B1i" from="B1" to="BR-TL" priority="-1">
        <lane id="B1i_0" index="0" speed="13.89" length="89.60" shape="201.60,-100.00 201.60,-10.40"/>
    </edge>
    <edge id="B1o" from="BR-TL" to="B1" priority="-1">
        <lane id="B1o_0" index="0" speed="13.89" length="89.60" shape="198.40,-10.40 198.40,-100.00"/>
    </edge>
    <edge id="BL-TL-l" from="BR-TL" to="BL-TL" priority="-1">
        <lane id="BL-TL-l_0" index="0" speed="13.89" length="79.20" shape="189.60,4.80 110.40,4.80"/>
        <lane id="BL-TL-l_1" index="1" speed="13.89" length="79.20" shape="189.60,1.60 110.40,1.60"/>
    </edge>
    <edge id="BL-TL-r" from="BL-TL" to="BR-TL" priority="-1">
        <lane id="BL-TL-r_0" index="0" speed="13.89" length="79.20" shape="110.40,-4.80 189.60,-4.80"/>
        <lane id="BL-TL-r_1" index="1" speed="13.89" length="79.20" shape="110.40,-1.60 189.60,-1.60"/>
    </edge>
    <edge id="BR-TL-d" from="TR-TL" to="BR-TL" priority="-1">
        <lane id="BR-TL-d_0" index="0" speed="13.89" length="79.20" shape="195.20,89.60 195.20,10.40"/>
        <lane id="BR-TL-d_1" index="1" speed="13.89" length="79.20" shape="198.40,89.60 198.40,10.40"/>
    </edge>
    <edge id="BR-TL-u" from="BR-TL" to="TR-TL" priority="-1">
        <lane id="BR-TL-u_0" index="0" speed="13.89" length="79.20" shape="204.80,10.40 204.80,89.60"/>
        <lane id="BR-TL-u_1" index="1" speed="13.89" length="79.20" shape="201.60,10.40 201.60,89.60"/>
    </edge>
    <edge id="L0i" from="L00" to="TL-TL" priority="-1">
        <lane id="L0i_0" index="0" speed="13.89" length="89.60" shape="0.00,98.40 89.60,98.40"/>
    </edge>
    <edge id="L0o" from="TL-TL" to="L00" priority="-1">
        <lane id="L0o_0" index="0" speed="13.89" length="89.60" shape="89.60,101.60 0.00,101.60"/>
    </edge>
    <edge id="L1i" from="L1" to="BL-TL" priority="-1">
        <lane id="L1i_0" index="0" speed="13.89" length="89.60" shape="0.00,-1.60 89.60,-1.60"/>
    </edge>
    <edge id="L1o" from="BL-TL" to="L1" priority="-1">
        <lane id="L1o_0" index="0" speed="13.89" length="89.60" shape="89.60,1.60 0.00,1.60"/>
    </edge>
    <edge id="R0i" from="R0" to="TR-TL" priority="-1">
        <lane id="R0i_0" index="0" speed="13.89" length="89.60" shape="300.00,101.60 210.40,101.60"/>
    </edge>
    <edge id="R0o" from="TR-TL" to="R0" priority="-1">
        <lane id="R0o_0" index="0" speed="13.89" length="89.60" shape="210.40,98.40 300.00,98.40"/>
    </edge>
    <edge id="R1i" from="R1" to="BR-TL" priority="-1">
        <lane id="R1i_0" index="0" speed="13.89" length="89.60" shape="300.00,1.60 210.40,1.60"/>
    </edge>
    <edge id="R1o" from="BR-TL" to="R1" priority="-1">
        <lane id="R1o_0" index="0" speed="13.89" length="89.60" shape="210.40,-1.60 300.00,-1.60"/>
    </edge>
    <edge id="T0i" from="T0" to="TL-TL" priority="-1">
        <lane id="T0i_0" index="0" speed="13.89" length="89.60" shape="98.40,200.00 98.40,110.40"/>
    </edge>
    <edge id="T0o" from="TL-TL" to="T0" priority="-1">
        <lane id="T0o_0" index="0" speed="13.89" length="89.60" shape="101.60,110.40 101.60,200.00"/>
    </edge>
    <edge id="T1i" from="T1" to="TR-TL" priority="-1">
        <lane id="T1i_0" index="0" speed="13.89" length="89.60" shape="198.40,200.00 198.40,110.40"/>
    </edge>
    <edge id="T1o" from="TR-TL" to="T1" priority="-1">
        <lane id="T1o_0" index="0" speed="13.89" length="89.60" shape="201.60,110.40 201.60,200.00"/>
    </edge>
    <edge id="TL-TL-d" from="TL-TL" to="BL-TL" priority="-1">
        <lane id="TL-TL-d_0" index="0" speed="13.89" length="79.20" shape="95.20,89.60 95.20,10.40"/>
        <lane id="TL-TL-d_1" index="1" speed="13.89" length="79.20" shape="98.40,89.60 98.40,10.40"/>
    </edge>
    <edge id="TL-TL-u" from="BL-TL" to="TL-TL" priority="-1">
        <lane id="TL-TL-u_0" index="0" speed="13.89" length="79.20" shape="104.80,10.40 104.80,89.60"/>
        <lane id="TL-TL-u_1" index="1" speed="13.89" length="79.20" shape="101.60,10.40 101.60,89.60"/>
    </edge>
    <edge id="TR-TL-l" from="TR-TL" to="TL-TL" priority="-1">
        <lane id="TR-TL-l_0" index="0" speed="13.89" length="79.20" shape="189.60,104.80 110.40,104.80"/>
        <lane id="TR-TL-l_1" index="1" speed="13.89" length="79.20" shape="189.60,101.60 110.40,101.60"/>
    </edge>
    <edge id="TR-TL-r" from="TL-TL" to="TR-TL" priority="-1">
        <lane id="TR-TL-r_0" index="0" speed="13.89" length="79.20" shape="110.40,95.20 189.60,95.20"/>
        <lane id="TR-TL-r_1" index="1" speed="13.89" length="79.20" shape="110.40,98.40 189.60,98.40"/>
    </edge>

    <tlLogic id="TL-TL" type="static" programID="0" offset="0">
        <phase duration="18" state="rrrGGGGrrrrr"/>
        <phase duration="3"  state="rrryyyyrrrrr"/>
        <phase duration="20" state="GGGGrrrrrrrr"/>
        <phase duration="3"  state="yyyyrrrrrrrr"/>
        <phase duration="20" state="rrrrrrGGGGrr"/>
        <phase duration="3"  state="rrrrrryyyyrr"/>
        <phase duration="20" state="GrrrrrrrrGGG"/>
        <phase duration="3"  state="yrrrrrrrryyy"/>
    </tlLogic>
    <tlLogic id="gneJ1" type="static" programID="0" offset="0">
        <phase duration="18" state="GrrrrrrrrGGG"/>
        <phase duration="3"  state="yrrrrrrrryyy"/>
        <phase duration="20" state="GGGGrrrrrrrr"/>
        <phase duration="3"  state="yyyyrrrrrrrr"/>
        <phase duration="20" state="rrrrrrGGGGrr"/>
        <phase duration="3"  state="rrrrrryyyyrr"/>
        <phase duration="20" state="rrrGGGGrrrrr"/>
        <phase duration="3"  state="rrryyyyrrrrr"/>
    </tlLogic>
    <tlLogic id="n0" type="static" programID="0" offset="0">
        <phase duration="18" state="GGGGrrrrrrrr"/>
        <phase duration="3"  state="yyyyrrrrrrrr"/>
        <phase duration="20" state="GrrrrrrrrGGG"/>
        <phase duration="3"  state="yrrrrrrrryyy"/>
        <phase duration="20" state="rrrGGGGrrrrr"/>
        <phase duration="3"  state="rrryyyyrrrrr"/>
        <phase duration="20" state="rrrrrrGGGGrr"/>
        <phase duration="3"  state="rrrrrryyyyrr"/>
    </tlLogic>
    <tlLogic id="n3" type="static" programID="0" offset="0">
        <phase duration="18" state="GGGGrrrrrrrr"/>
        <phase duration="3"  state="yyyyrrrrrrrr"/>
        <phase duration="20" state="rrrGGGGrrrrr"/>
        <phase duration="3"  state="rrryyyyrrrrr"/>
        <phase duration="20" state="GrrrrrrrrGGG"/>
        <phase duration="3"  state="yrrrrrrrryyy"/>
        <phase duration="20" state="rrrrrrGGGGrr"/>
        <phase duration="3"  state="rrrrrryyyyrr"/>
    </tlLogic>

    <junction id="B0" type="dead_end" x="100.00" y="-100.00" incLanes="B0o_0" intLanes="" shape="100.00,-100.00 96.80,-100.00 100.00,-100.00"/>
    <junction id="B1" type="dead_end" x="200.00" y="-100.00" incLanes="B1o_0" intLanes="" shape="200.00,-100.00 196.80,-100.00 200.00,-100.00"/>
    <junction id="BL-TL" type="traffic_light" x="100.00" y="0.00" incLanes="TL-TL-d_0 TL-TL-d_1 BL-TL-l_0 BL-TL-l_1 B0i_0 L1i_0" intLanes=":BL-TL_0_0 :BL-TL_1_0 :BL-TL_2_0 :BL-TL_3_0 :BL-TL_4_0 :BL-TL_12_0 :BL-TL_6_0 :BL-TL_7_0 :BL-TL_8_0 :BL-TL_9_0 :BL-TL_10_0 :BL-TL_11_0" shape="93.60,10.40 106.40,10.40 106.84,8.18 107.40,7.40 108.18,6.84 109.18,6.51 110.40,6.40 110.40,-6.40 108.20,-6.51 106.40,-6.84 105.00,-7.40 104.00,-8.18 103.40,-9.18 103.20,-10.40 96.80,-10.40 96.60,-8.20 96.00,-6.40 95.00,-5.00 93.60,-4.00 91.80,-3.40 89.60,-3.20 89.60,3.20 91.82,4.00 92.60,5.00 93.16,6.40 93.49,8.20">
        <request index="0"  response="000000000000" foes="000100010000" cont="0"/>
        <request index="1"  response="000000100000" foes="111100110000" cont="0"/>
        <request index="2"  response="000000000000" foes="110010110000" cont="0"/>
        <request index="3"  response="000000000000" foes="000000000000" cont="0"/>
        <request index="4"  response="000000000111" foes="100110000111" cont="0"/>
        <request index="5"  response="000000000110" foes="011110000110" cont="1"/>
        <request index="6"  response="000000000000" foes="000000000000" cont="0"/>
        <request index="7"  response="000000110100" foes="110000110100" cont="0"/>
        <request index="8"  response="000000110011" foes="110000110011" cont="0"/>
        <request index="9"  response="000000100010" foes="000000100010" cont="0"/>
        <request index="10" response="000110100110" foes="000110100110" cont="0"/>
        <request index="11" response="000110010110" foes="000110010110" cont="0"/>
    </junction>
    <junction id="BR-TL" type="traffic_light" x="200.00" y="0.00" incLanes="BR-TL-d_0 BR-TL-d_1 R1i_0 B1i_0 BL-TL-r_0 BL-TL-r_1" intLanes=":BR-TL_0_0 :BR-TL_1_0 :BR-TL_12_0 :BR-TL_3_0 :BR-TL_4_0 :BR-TL_5_0 :BR-TL_6_0 :BR-TL_7_0 :BR-TL_8_0 :BR-TL_9_0 :BR-TL_10_0 :BR-TL_11_0" shape="193.60,10.40 206.40,10.40 206.51,8.20 206.84,6.40 207.40,5.00 208.18,4.00 209.18,3.40 210.40,3.20 210.40,-3.20 208.20,-3.40 206.40,-4.00 205.00,-5.00 204.00,-6.40 203.40,-8.20 203.20,-10.40 196.80,-10.40 196.00,-8.18 195.00,-7.40 193.60,-6.84 191.80,-6.51 189.60,-6.40 189.60,6.40 191.82,6.84 192.60,7.40 193.16,8.18 193.49,9.18">
        <request index="0"  response="000000000000" foes="000000000000" cont="0"/>
        <request index="1"  response="111000000000" foes="111100110000" cont="0"/>
        <request index="2"  response="110000000000" foes="110011110000" cont="1"/>
        <request index="3"  response="000000000000" foes="000000000000" cont="0"/>
        <request index="4"  response="100000000110" foes="100110000110" cont="0"/>
        <request index="5"  response="011000000110" foes="011110000110" cont="0"/>
        <request index="6"  response="010000000100" foes="010000000100" cont="0"/>
        <request index="7"  response="110000110100" foes="110000110100" cont="0"/>
        <request index="8"  response="110000110010" foes="110000110010" cont="0"/>
        <request index="9"  response="000000000000" foes="000000100010" cont="0"/>
        <request index="10" response="000000000100" foes="000111100110" cont="0"/>
        <request index="11" response="000000000000" foes="000110010110" cont="0"/>
    </junction>
    <junction id="L00" type="dead_end" x="0.00" y="100.00" incLanes="L0o_0" intLanes="" shape="0.00,100.00 0.00,103.20 0.00,100.00"/>
    <junction id="L1" type="dead_end" x="0.00" y="0.00" incLanes="L1o_0" intLanes="" shape="0.00,0.00 0.00,3.20 0.00,0.00"/>
    <junction id="R0" type="dead_end" x="300.00" y="100.00" incLanes="R0o_0" intLanes="" shape="300.00,100.00 300.00,96.80 300.00,100.00"/>
    <junction id="R1" type="dead_end" x="300.00" y="0.00" incLanes="R1o_0" intLanes="" shape="300.00,0.00 300.00,-3.20 300.00,0.00"/>
    <junction id="T0" type="dead_end" x="100.00" y="200.00" incLanes="T0o_0" intLanes="" shape="100.00,200.00 103.20,200.00 100.00,200.00"/>
    <junction id="T1" type="dead_end" x="200.00" y="200.00" incLanes="T1o_0" intLanes="" shape="200.00,200.00 203.20,200.00 200.00,200.00"/>
    <junction id="TL-TL" type="traffic_light" x="100.00" y="100.00" incLanes="T0i_0 TR-TL-l_0 TR-TL-l_1 TL-TL-u_0 TL-TL-u_1 L0i_0" intLanes=":TL-TL_0_0 :TL-TL_1_0 :TL-TL_2_0 :TL-TL_3_0 :TL-TL_4_0 :TL-TL_5_0 :TL-TL_6_0 :TL-TL_7_0 :TL-TL_12_0 :TL-TL_9_0 :TL-TL_10_0 :TL-TL_11_0" shape="96.80,110.40 103.20,110.40 104.00,108.18 105.00,107.40 106.40,106.84 108.20,106.51 110.40,106.40 110.40,93.60 108.18,93.16 107.40,92.60 106.84,91.82 106.51,90.82 106.40,89.60 93.60,89.60 93.49,91.80 93.16,93.60 92.60,95.00 91.82,96.00 90.82,96.60 89.60,96.80 89.60,103.20 91.80,103.40 93.60,104.00 95.00,105.00 96.00,106.40 96.60,108.20">
        <request index="0"  response="000100010000" foes="000100010000" cont="0"/>
        <request index="1"  response="110100110000" foes="110100110000" cont="0"/>
        <request index="2"  response="110010110000" foes="110010110000" cont="0"/>
        <request index="3"  response="000000000000" foes="100010000000" cont="0"/>
        <request index="4"  response="000100000000" foes="100110000111" cont="0"/>
        <request index="5"  response="000000000000" foes="010110000110" cont="0"/>
        <request index="6"  response="000000000000" foes="000000000000" cont="0"/>
        <request index="7"  response="000000111000" foes="110000111100" cont="0"/>
        <request index="8"  response="000000110000" foes="110000110011" cont="1"/>
        <request index="9"  response="000000000000" foes="000000000000" cont="0"/>
        <request index="10" response="000110100000" foes="000110100110" cont="0"/>
        <request index="11" response="000110011000" foes="000110011110" cont="0"/>
    </junction>
    <junction id="TR-TL" type="traffic_light" x="200.00" y="100.00" incLanes="T1i_0 R0i_0 BR-TL-u_0 BR-TL-u_1 TR-TL-r_0 TR-TL-r_1" intLanes=":TR-TL_0_0 :TR-TL_1_0 :TR-TL_2_0 :TR-TL_3_0 :TR-TL_4_0 :TR-TL_5_0 :TR-TL_6_0 :TR-TL_7_0 :TR-TL_8_0 :TR-TL_9_0 :TR-TL_10_0 :TR-TL_12_0" shape="196.80,110.40 203.20,110.40 203.40,108.20 204.00,106.40 205.00,105.00 206.40,104.00 208.20,103.40 210.40,103.20 210.40,96.80 208.18,96.00 207.40,95.00 206.84,93.60 206.51,91.80 206.40,89.60 193.60,89.60 193.16,91.82 192.60,92.60 191.82,93.16 190.82,93.49 189.60,93.60 189.60,106.40 191.80,106.51 193.60,106.84 195.00,107.40 196.00,108.18 196.60,109.18">
        <request index="0"  response="000000000000" foes="000000000000" cont="0"/>
        <request index="1"  response="110100000000" foes="110100110000" cont="0"/>
        <request index="2"  response="110011000000" foes="110011110000" cont="0"/>
        <request index="3"  response="100010000000" foes="100010000000" cont="0"/>
        <request index="4"  response="100110000110" foes="100110000110" cont="0"/>
        <request index="5"  response="010110000110" foes="010110000110" cont="0"/>
        <request index="6"  response="000000000000" foes="010000000100" cont="0"/>
        <request index="7"  response="100000000000" foes="110000111100" cont="0"/>
        <request index="8"  response="000000000000" foes="110000110010" cont="0"/>
        <request index="9"  response="000000000000" foes="000000000000" cont="0"/>
        <request index="10" response="000111000000" foes="000111100110" cont="0"/>
        <request index="11" response="000110000000" foes="000110011110" cont="1"/>
    </junction>

    <junction id=":BL-TL_12_0" type="internal" x="105.37" y="0.88" incLanes=":BL-TL_5_0 TL-TL-d_1" intLanes=":BL-TL_1_0 :BL-TL_2_0 :BL-TL_7_0 :BL-TL_8_0 :BL-TL_9_0 :BL-TL_10_0"/>
    <junction id=":BR-TL_12_0" type="internal" x="199.12" y="5.37" incLanes=":BR-TL_2_0 BL-TL-r_1" intLanes=":BR-TL_4_0 :BR-TL_5_0 :BR-TL_6_0 :BR-TL_7_0 :BR-TL_10_0 :BR-TL_11_0"/>
    <junction id=":TL-TL_12_0" type="internal" x="100.88" y="94.63" incLanes=":TL-TL_8_0 TR-TL-l_1" intLanes=":TL-TL_0_0 :TL-TL_1_0 :TL-TL_4_0 :TL-TL_5_0 :TL-TL_10_0 :TL-TL_11_0"/>
    <junction id=":TR-TL_12_0" type="internal" x="194.63" y="99.12" incLanes=":TR-TL_11_0 BR-TL-u_1" intLanes=":TR-TL_1_0 :TR-TL_2_0 :TR-TL_3_0 :TR-TL_4_0 :TR-TL_7_0 :TR-TL_8_0"/>

    <connection from="B0i" to="BL-TL-r" fromLane="0" toLane="0" via=":BL-TL_6_0" tl="n0" linkIndex="6" dir="r" state="O"/>
    <connection from="B0i" to="TL-TL-u" fromLane="0" toLane="1" via=":BL-TL_7_0" tl="n0" linkIndex="7" dir="s" state="o"/>
    <connection from="B0i" to="L1o" fromLane="0" toLane="0" via=":BL-TL_8_0" tl="n0" linkIndex="8" dir="l" state="o"/>
    <connection from="B1i" to="R1o" fromLane="0" toLane="0" via=":BR-TL_6_0" tl="n3" linkIndex="6" dir="r" state="o"/>
    <connection from="B1i" to="BR-TL-u" fromLane="0" toLane="1" via=":BR-TL_7_0" tl="n3" linkIndex="7" dir="s" state="o"/>
    <connection from="B1i" to="BL-TL-l" fromLane="0" toLane="1" via=":BR-TL_8_0" tl="n3" linkIndex="8" dir="l" state="o"/>
    <connection from="BL-TL-l" to="TL-TL-u" fromLane="0" toLane="0" via=":BL-TL_3_0" tl="n0" linkIndex="3" dir="r" state="O"/>
    <connection from="BL-TL-l" to="L1o" fromLane="0" toLane="0" via=":BL-TL_4_0" tl="n0" linkIndex="4" dir="s" state="o"/>
    <connection from="BL-TL-l" to="B0o" fromLane="1" toLane="0" via=":BL-TL_5_0" tl="n0" linkIndex="5" dir="l" state="o"/>
    <connection from="BL-TL-r" to="B1o" fromLane="0" toLane="0" via=":BR-TL_9_0" tl="n3" linkIndex="9" dir="r" state="O"/>
    <connection from="BL-TL-r" to="R1o" fromLane="0" toLane="0" via=":BR-TL_10_0" tl="n3" linkIndex="10" dir="s" state="O"/>
    <connection from="BL-TL-r" to="BR-TL-u" fromLane="1" toLane="1" via=":BR-TL_11_0" tl="n3" linkIndex="11" dir="l" state="O"/>
    <connection from="BR-TL-d" to="BL-TL-l" fromLane="0" toLane="0" via=":BR-TL_0_0" tl="n3" linkIndex="0" dir="r" state="O"/>
    <connection from="BR-TL-d" to="B1o" fromLane="0" toLane="0" via=":BR-TL_1_0" tl="n3" linkIndex="1" dir="s" state="o"/>
    <connection from="BR-TL-d" to="R1o" fromLane="1" toLane="0" via=":BR-TL_2_0" tl="n3" linkIndex="2" dir="l" state="o"/>
    <connection from="BR-TL-u" to="R0o" fromLane="0" toLane="0" via=":TR-TL_6_0" tl="gneJ1" linkIndex="6" dir="r" state="O"/>
    <connection from="BR-TL-u" to="T1o" fromLane="0" toLane="0" via=":TR-TL_7_0" tl="gneJ1" linkIndex="7" dir="s" state="O"/>
    <connection from="BR-TL-u" to="TR-TL-l" fromLane="1" toLane="1" via=":TR-TL_8_0" tl="gneJ1" linkIndex="8" dir="l" state="O"/>
    <connection from="L0i" to="TL-TL-d" fromLane="0" toLane="0" via=":TL-TL_9_0" tl="TL-TL" linkIndex="9" dir="r" state="O"/>
    <connection from="L0i" to="TR-TL-r" fromLane="0" toLane="1" via=":TL-TL_10_0" tl="TL-TL" linkIndex="10" dir="s" state="o"/>
    <connection from="L0i" to="T0o" fromLane="0" toLane="0" via=":TL-TL_11_0" tl="TL-TL" linkIndex="11" dir="l" state="o"/>
    <connection from="L1i" to="B0o" fromLane="0" toLane="0" via=":BL-TL_9_0" tl="n0" linkIndex="9" dir="r" state="o"/>
    <connection from="L1i" to="BL-TL-r" fromLane="0" toLane="1" via=":BL-TL_10_0" tl="n0" linkIndex="10" dir="s" state="o"/>
    <connection from="L1i" to="TL-TL-u" fromLane="0" toLane="1" via=":BL-TL_11_0" tl="n0" linkIndex="11" dir="l" state="o"/>
    <connection from="R0i" to="T1o" fromLane="0" toLane="0" via=":TR-TL_3_0" tl="gneJ1" linkIndex="3" dir="r" state="o"/>