<?xml version="1.0" encoding="UTF-8"?>

<additional>

    <taz id="IN" edges="L0i L1i R0i R1i T0i T1i B0i B1i"/>
    <taz id="OUT" edges="L0o L1o R0o R1o T0o T1o B0o B1o"/>

    <tazs>
        <taz id="TL">
            <tazSource id="L0i" weight="1"/>
            <tazSource id="T0i" weight="1"/>
            <tazSink id="L0o" weight="1"/>
            <tazSink id="T0o" weight="1"/>
        </taz>

        <taz id="BL">
            <tazSource id="L1i" weight="1"/>
            <tazSource id="B0i" weight="1"/>
            <tazSink id="L1o" weight="1"/>
            <tazSink id="B0o" weight="1"/>
        </taz>

        <taz id="BR">
            <tazSource id="R1i" weight="1"/>
            <tazSource id="B1i" weight="1"/>
            <tazSink id="R1o" weight="1"/>
            <tazSink id="B1o" weight="1"/>
        </taz>

        <taz id="TR">
            <tazSource id="R0i" weight="1"/>
            <tazSource id="T1i" weight="1"/>
            <tazSink id="R0o" weight="1"/>
            <tazSink id="T1o" weight="1"/>
        </taz>

    </tazs>

</additional>
